
     RDKit          3D

 58 62  0  0  0  0  0  0  0  0999 V2000
   31.3730   37.4620   82.8840 C   0  0  0  0  0  0  0  0  0  0  0  0
   30.7580   36.2720   82.3370 C   0  0  0  0  0  0  0  0  0  0  0  0
   29.3380   36.0810   82.4450 C   0  0  0  0  0  0  0  0  0  0  0  0
   28.5360   37.0730   83.1060 C   0  0  0  0  0  0  0  0  0  0  0  0
   27.0570   36.8480   83.1900 C   0  0  0  0  0  0  0  0  0  0  0  0
   26.4330   35.8820   82.4240 O   0  0  0  0  0  0  0  0  0  0  0  0
   25.1150   35.9540   82.7400 C   0  0  0  0  0  0  0  0  0  0  0  0
   24.0880   35.1750   82.2250 N   0  0  0  0  0  0  0  0  0  0  0  0
   22.7950   35.3270   82.6090 C   0  0  0  0  0  0  0  0  0  0  0  0
   22.4470   36.2910   83.5900 C   0  0  0  0  0  0  0  0  0  0  0  0
   23.4740   37.1260   84.1610 C   0  0  0  0  0  0  0  0  0  0  0  0
   23.1790   38.0760   85.1170 N   0  0  0  0  0  0  0  0  0  0  0  0
   22.0170   37.9910   85.9920 C   0  0  0  0  0  0  0  0  0  0  0  0
   21.3140   39.3390   86.1760 C   0  0  0  0  0  0  0  0  0  0  0  0
   22.0900   40.5220   85.7290 N   0  0  0  0  0  4  0  0  0  0  0  0
   22.1560   41.4340   86.9030 C   0  0  0  0  0  0  0  0  0  0  0  0
   22.9410   42.7090   86.5420 C   0  0  0  0  0  0  0  0  0  0  0  0
   22.2950   43.3640   85.3670 N   0  0  0  0  0  4  0  0  0  0  0  0
   22.2260   42.4460   84.1870 C   0  0  0  0  0  0  0  0  0  0  0  0
   21.4110   41.1970   84.5870 C   0  0  0  0  0  0  0  0  0  0  0  0
   24.8590   36.9450   83.7170 C   0  0  0  0  0  0  0  0  0  0  0  0
   26.0520   37.5740   84.0620 C   0  0  0  0  0  0  0  0  0  0  0  0
   26.2180   38.6740   85.0440 C   0  0  0  0  0  0  0  0  0  0  0  0
   26.5780   38.3850   86.4050 C   0  0  0  0  0  0  0  0  0  0  0  0
   26.7170   39.4590   87.3420 C   0  0  0  0  0  0  0  0  0  0  0  0
   26.4910   40.8190   86.9110 C   0  0  0  0  0  0  0  0  0  0  0  0
   26.1320   41.1150   85.5420 C   0  0  0  0  0  0  0  0  0  0  0  0
   25.9920   40.0380   84.6080 C   0  0  0  0  0  0  0  0  0  0  0  0
   29.1780   38.2570   83.6530 C   0  0  0  0  0  0  0  0  0  0  0  0
   30.5820   38.4540   83.5470 C   0  0  0  0  0  0  0  0  0  0  0  0
   32.4594   37.6059   82.7894 H   0  0  0  0  0  0  0  0  0  0  0  0
   31.3782   35.5128   81.8380 H   0  0  0  0  0  0  0  0  0  0  0  0
   28.8675   35.1802   82.0239 H   0  0  0  0  0  0  0  0  0  0  0  0
   22.0128   34.6994   82.1571 H   0  0  0  0  0  0  0  0  0  0  0  0
   21.4011   36.4005   83.9126 H   0  0  0  0  0  0  0  0  0  0  0  0
   23.0620   38.9300   84.6090 H   0  0  0  0  0  0  0  0  0  0  0  0
   21.3012   37.2775   85.5577 H   0  0  0  0  0  0  0  0  0  0  0  0
   22.3699   37.6633   86.9810 H   0  0  0  0  0  0  0  0  0  0  0  0
   20.3738   39.3132   85.6055 H   0  0  0  0  0  0  0  0  0  0  0  0
   21.1672   39.4615   87.2593 H   0  0  0  0  0  0  0  0  0  0  0  0
   23.0020   40.2600   85.4130 H   0  0  0  0  0  0  0  0  0  0  0  0
   21.1354   41.7094   87.2071 H   0  0  0  0  0  0  0  0  0  0  0  0
   22.6678   40.9191   87.7294 H   0  0  0  0  0  0  0  0  0  0  0  0
   22.9353   43.3998   87.3980 H   0  0  0  0  0  0  0  0  0  0  0  0
   23.9803   42.4468   86.2950 H   0  0  0  0  0  0  0  0  0  0  0  0
   21.3660   43.6320   85.6200 H   0  0  0  0  0  0  0  0  0  0  0  0
   22.8300   44.1710   85.1150 H   0  0  0  0  0  0  0  0  0  0  0  0
   21.7334   42.9575   83.3469 H   0  0  0  0  0  0  0  0  0  0  0  0
   23.2398   42.1521   83.8775 H   0  0  0  0  0  0  0  0  0  0  0  0
   20.3965   41.4986   84.8868 H   0  0  0  0  0  0  0  0  0  0  0  0
   21.3440   40.5069   83.7330 H   0  0  0  0  0  0  0  0  0  0  0  0
   26.7456   37.3459   86.7248 H   0  0  0  0  0  0  0  0  0  0  0  0
   26.9947   39.2492   88.3855 H   0  0  0  0  0  0  0  0  0  0  0  0
   26.5935   41.6412   87.6345 H   0  0  0  0  0  0  0  0  0  0  0  0
   25.9684   42.1545   85.2217 H   0  0  0  0  0  0  0  0  0  0  0  0
   25.7141   40.2451   83.5640 H   0  0  0  0  0  0  0  0  0  0  0  0
   28.5645   39.0166   84.1596 H   0  0  0  0  0  0  0  0  0  0  0  0
   31.0531   39.3545   83.9678 H   0  0  0  0  0  0  0  0  0  0  0  0
  1  2  2  0
  2  3  1  0
  3  4  2  0
  4  5  1  0
  5  6  1  0
  6  7  1  0
  7  8  2  0
  8  9  1  0
  9 10  2  0
 10 11  1  0
 11 12  1  0
 12 13  1  0
 13 14  1  0
 14 15  1  0
 15 16  1  0
 16 17  1  0
 17 18  1  0
 18 19  1  0
 19 20  1  0
 11 21  2  0
 21 22  1  0
 22 23  1  0
 23 24  2  0
 24 25  1  0
 25 26  2  0
 26 27  1  0
 27 28  2  0
  4 29  1  0
 29 30  2  0
 30  1  1  0
 22  5  2  0
 28 23  1  0
 21  7  1  0
 20 15  1  0
  1 31  1  0
  2 32  1  0
  3 33  1  0
  9 34  1  0
 10 35  1  0
 12 36  1  0
 13 37  1  0
 13 38  1  0
 14 39  1  0
 14 40  1  0
 15 41  1  0
 16 42  1  0
 16 43  1  0
 17 44  1  0
 17 45  1  0
 18 46  1  0
 18 47  1  0
 19 48  1  0
 19 49  1  0
 20 50  1  0
 20 51  1  0
 24 52  1  0
 25 53  1  0
 26 54  1  0
 27 55  1  0
 28 56  1  0
 29 57  1  0
 30 58  1  0
M  CHG  2  15   1  18   1
M  END
>  <meeko>  (1) 
{"free_energy": -11.811, "intermolecular_energy": -11.274, "internal_energy": -1.528}

$$$$

     RDKit          3D

 58 62  0  0  0  0  0  0  0  0999 V2000
   31.7620   36.0100   83.1770 C   0  0  0  0  0  0  0  0  0  0  0  0
   32.0740   37.1700   83.9830 C   0  0  0  0  0  0  0  0  0  0  0  0
   31.0810   38.1860   84.1950 C   0  0  0  0  0  0  0  0  0  0  0  0
   29.7830   38.0480   83.5960 C   0  0  0  0  0  0  0  0  0  0  0  0
   28.7670   39.1200   83.8490 C   0  0  0  0  0  0  0  0  0  0  0  0
   29.1470   40.4210   84.1170 O   0  0  0  0  0  0  0  0  0  0  0  0
   27.9940   41.1140   84.2990 C   0  0  0  0  0  0  0  0  0  0  0  0
   27.8680   42.4650   84.5900 N   0  0  0  0  0  0  0  0  0  0  0  0
   26.6610   43.0650   84.7530 C   0  0  0  0  0  0  0  0  0  0  0  0
   25.4630   42.3200   84.6030 C   0  0  0  0  0  0  0  0  0  0  0  0
   25.5360   40.9130   84.2990 C   0  0  0  0  0  0  0  0  0  0  0  0
   24.3950   40.1510   84.1450 N   0  0  0  0  0  0  0  0  0  0  0  0
   23.0760   40.5990   84.5720 C   0  0  0  0  0  0  0  0  0  0  0  0
   22.5640   39.8460   85.8030 C   0  0  0  0  0  0  0  0  0  0  0  0
   22.3040   38.3990   85.5950 N   0  0  0  0  0  4  0  0  0  0  0  0
   21.3320   38.3170   84.4710 C   0  0  0  0  0  0  0  0  0  0  0  0
   20.9860   36.8460   84.1750 C   0  0  0  0  0  0  0  0  0  0  0  0
   20.4530   36.2100   85.4170 N   0  0  0  0  0  4  0  0  0  0  0  0
   21.4290   36.2960   86.5490 C   0  0  0  0  0  0  0  0  0  0  0  0
   21.7270   37.7860   86.8240 C   0  0  0  0  0  0  0  0  0  0  0  0
   26.8540   40.2920   84.1390 C   0  0  0  0  0  0  0  0  0  0  0  0
   27.2570   38.9910   83.8510 C   0  0  0  0  0  0  0  0  0  0  0  0
   26.3710   37.8230   83.6220 C   0  0  0  0  0  0  0  0  0  0  0  0
   25.6410   37.2390   84.7140 C   0  0  0  0  0  0  0  0  0  0  0  0
   24.8030   36.1020   84.4750 C   0  0  0  0  0  0  0  0  0  0  0  0
   24.7030   35.5530   83.1420 C   0  0  0  0  0  0  0  0  0  0  0  0
   25.4330   36.1390   82.0410 C   0  0  0  0  0  0  0  0  0  0  0  0
   26.2700   37.2760   82.2840 C   0  0  0  0  0  0  0  0  0  0  0  0
   29.4960   36.8760   82.7860 C   0  0  0  0  0  0  0  0  0  0  0  0
   30.4720   35.8640   82.5740 C   0  0  0  0  0  0  0  0  0  0  0  0
   32.5244   35.2316   83.0258 H   0  0  0  0  0  0  0  0  0  0  0  0
   33.0720   37.2741   84.4337 H   0  0  0  0  0  0  0  0  0  0  0  0
   31.3136   39.0656   84.8132 H   0  0  0  0  0  0  0  0  0  0  0  0
   26.6117   44.1351   85.0029 H   0  0  0  0  0  0  0  0  0  0  0  0
   24.4860   42.8123   84.7178 H   0  0  0  0  0  0  0  0  0  0  0  0
   24.5680   39.3150   84.6650 H   0  0  0  0  0  0  0  0  0  0  0  0
   23.1297   41.6710   84.8128 H   0  0  0  0  0  0  0  0  0  0  0  0
   22.3756   40.4009   83.7473 H   0  0  0  0  0  0  0  0  0  0  0  0
   23.3155   39.9458   86.6001 H   0  0  0  0  0  0  0  0  0  0  0  0
   21.5934   40.2977   86.0558 H   0  0  0  0  0  0  0  0  0  0  0  0
   23.1490   37.9040   85.3910 H   0  0  0  0  0  0  0  0  0  0  0  0
   20.4142   38.8586   84.7438 H   0  0  0  0  0  0  0  0  0  0  0  0
   21.7810   38.7682   83.5739 H   0  0  0  0  0  0  0  0  0  0  0  0
   20.2256   36.7989   83.3815 H   0  0  0  0  0  0  0  0  0  0  0  0
   21.8889   36.3123   83.8434 H   0  0  0  0  0  0  0  0  0  0  0  0
   19.6120   36.6810   85.6820 H   0  0  0  0  0  0  0  0  0  0  0  0
   20.2640   35.2460   85.2280 H   0  0  0  0  0  0  0  0  0  0  0  0
   20.9972   35.8315   87.4478 H   0  0  0  0  0  0  0  0  0  0  0  0
   22.3575   35.7669   86.2883 H   0  0  0  0  0  0  0  0  0  0  0  0
   20.7952   38.3052   87.0927 H   0  0  0  0  0  0  0  0  0  0  0  0
   22.4420   37.8752   87.6552 H   0  0  0  0  0  0  0  0  0  0  0  0
   25.7253   37.6621   85.7259 H   0  0  0  0  0  0  0  0  0  0  0  0
   24.2379   35.6487   85.3028 H   0  0  0  0  0  0  0  0  0  0  0  0
   24.0624   34.6769   82.9629 H   0  0  0  0  0  0  0  0  0  0  0  0
   25.3470   35.7172   81.0287 H   0  0  0  0  0  0  0  0  0  0  0  0
   26.8343   37.7324   81.4574 H   0  0  0  0  0  0  0  0  0  0  0  0
   28.5021   36.7695   82.3269 H   0  0  0  0  0  0  0  0  0  0  0  0
   30.2396   34.9836   81.9569 H   0  0  0  0  0  0  0  0  0  0  0  0
  1  2  2  0
  2  3  1  0
  3  4  2  0
  4  5  1  0
  5  6  1  0
  6  7  1  0
  7  8  2  0
  8  9  1  0
  9 10  2  0
 10 11  1  0
 11 12  1  0
 12 13  1  0
 13 14  1  0
 14 15  1  0
 15 16  1  0
 16 17  1  0
 17 18  1  0
 18 19  1  0
 19 20  1  0
 11 21  2  0
 21 22  1  0
 22 23  1  0
 23 24  2  0
 24 25  1  0
 25 26  2  0
 26 27  1  0
 27 28  2  0
  4 29  1  0
 29 30  2  0
 30  1  1  0
 22  5  2  0
 28 23  1  0
 21  7  1  0
 20 15  1  0
  1 31  1  0
  2 32  1  0
  3 33  1  0
  9 34  1  0
 10 35  1  0
 12 36  1  0
 13 37  1  0
 13 38  1  0
 14 39  1  0
 14 40  1  0
 15 41  1  0
 16 42  1  0
 16 43  1  0
 17 44  1  0
 17 45  1  0
 18 46  1  0
 18 47  1  0
 19 48  1  0
 19 49  1  0
 20 50  1  0
 20 51  1  0
 24 52  1  0
 25 53  1  0
 26 54  1  0
 27 55  1  0
 28 56  1  0
 29 57  1  0
 30 58  1  0
M  CHG  2  15   1  18   1
M  END
>  <meeko>  (2) 
{"free_energy": -11.792, "intermolecular_energy": -11.557, "internal_energy": -1.219}

$$$$

     RDKit          3D

 58 62  0  0  0  0  0  0  0  0999 V2000
   31.3340   37.2550   82.8890 C   0  0  0  0  0  0  0  0  0  0  0  0
   30.5130   38.1680   83.6540 C   0  0  0  0  0  0  0  0  0  0  0  0
   29.0900   37.9800   83.7110 C   0  0  0  0  0  0  0  0  0  0  0  0
   28.4880   36.8870   82.9990 C   0  0  0  0  0  0  0  0  0  0  0  0
   27.0030   36.7120   83.0920 C   0  0  0  0  0  0  0  0  0  0  0  0
   26.3490   35.7340   82.3690 O   0  0  0  0  0  0  0  0  0  0  0  0
   25.0330   35.8600   82.6810 C   0  0  0  0  0  0  0  0  0  0  0  0
   23.9820   35.0920   82.2000 N   0  0  0  0  0  0  0  0  0  0  0  0
   22.6950   35.3010   82.5770 C   0  0  0  0  0  0  0  0  0  0  0  0
   22.3780   36.3170   83.5150 C   0  0  0  0  0  0  0  0  0  0  0  0
   23.4320   37.1440   84.0490 C   0  0  0  0  0  0  0  0  0  0  0  0
   23.1680   38.1430   84.9630 N   0  0  0  0  0  0  0  0  0  0  0  0
   22.1840   38.0070   86.0290 C   0  0  0  0  0  0  0  0  0  0  0  0
   21.6780   39.3580   86.5450 C   0  0  0  0  0  0  0  0  0  0  0  0
   22.2540   40.5470   85.8680 N   0  0  0  0  0  4  0  0  0  0  0  0
   22.5510   41.5270   86.9480 C   0  0  0  0  0  0  0  0  0  0  0  0
   23.1510   42.8130   86.3490 C   0  0  0  0  0  0  0  0  0  0  0  0
   22.2010   43.3710   85.3410 N   0  0  0  0  0  4  0  0  0  0  0  0
   21.8980   42.3840   84.2560 C   0  0  0  0  0  0  0  0  0  0  0  0
   21.2790   41.1250   84.9000 C   0  0  0  0  0  0  0  0  0  0  0  0
   24.8100   36.9010   83.6140 C   0  0  0  0  0  0  0  0  0  0  0  0
   26.0230   37.5060   83.9310 C   0  0  0  0  0  0  0  0  0  0  0  0
   26.2230   38.6430   84.8650 C   0  0  0  0  0  0  0  0  0  0  0  0
   26.1390   39.9960   84.3890 C   0  0  0  0  0  0  0  0  0  0  0  0
   26.3520   41.0800   85.3020 C   0  0  0  0  0  0  0  0  0  0  0  0
   26.6520   40.8010   86.6870 C   0  0  0  0  0  0  0  0  0  0  0  0
   26.7350   39.4410   87.1700 C   0  0  0  0  0  0  0  0  0  0  0  0
   26.5220   38.3600   86.2540 C   0  0  0  0  0  0  0  0  0  0  0  0
   29.3350   35.9870   82.2330 C   0  0  0  0  0  0  0  0  0  0  0  0
   30.7440   36.1650   82.1740 C   0  0  0  0  0  0  0  0  0  0  0  0
   32.4239   37.4003   82.8566 H   0  0  0  0  0  0  0  0  0  0  0  0
   30.9787   39.0067   84.1923 H   0  0  0  0  0  0  0  0  0  0  0  0
   28.4644   38.6695   84.2969 H   0  0  0  0  0  0  0  0  0  0  0  0
   21.8931   34.6790   82.1528 H   0  0  0  0  0  0  0  0  0  0  0  0
   21.3364   36.4728   83.8325 H   0  0  0  0  0  0  0  0  0  0  0  0
   22.8550   38.9210   84.4170 H   0  0  0  0  0  0  0  0  0  0  0  0
   21.3271   37.4338   85.6454 H   0  0  0  0  0  0  0  0  0  0  0  0
   22.6745   37.4938   86.8693 H   0  0  0  0  0  0  0  0  0  0  0  0
   20.5864   39.3861   86.4126 H   0  0  0  0  0  0  0  0  0  0  0  0
   21.9937   39.4217   87.5968 H   0  0  0  0  0  0  0  0  0  0  0  0
   23.0740   40.3090   85.3490 H   0  0  0  0  0  0  0  0  0  0  0  0
   21.6207   41.7739   87.4806 H   0  0  0  0  0  0  0  0  0  0  0  0
   23.2767   41.0834   87.6456 H   0  0  0  0  0  0  0  0  0  0  0  0
   23.3149   43.5504   87.1486 H   0  0  0  0  0  0  0  0  0  0  0  0
   24.1122   42.5837   85.8657 H   0  0  0  0  0  0  0  0  0  0  0  0
   21.3480   43.6110   85.8030 H   0  0  0  0  0  0  0  0  0  0  0  0
   22.6110   44.1840   84.9300 H   0  0  0  0  0  0  0  0  0  0  0  0
   21.1862   42.8240   83.5420 H   0  0  0  0  0  0  0  0  0  0  0  0
   22.8205   42.1185   83.7188 H   0  0  0  0  0  0  0  0  0  0  0  0
   20.3530   41.3976   85.4274 H   0  0  0  0  0  0  0  0  0  0  0  0
   21.0454   40.3849   84.1205 H   0  0  0  0  0  0  0  0  0  0  0  0
   25.9129   40.1984   83.3317 H   0  0  0  0  0  0  0  0  0  0  0  0
   26.2873   42.1200   84.9495 H   0  0  0  0  0  0  0  0  0  0  0  0
   26.8197   41.6352   87.3842 H   0  0  0  0  0  0  0  0  0  0  0  0
   26.9589   39.2385   88.2278 H   0  0  0  0  0  0  0  0  0  0  0  0
   26.5853   37.3191   86.6041 H   0  0  0  0  0  0  0  0  0  0  0  0
   28.8753   35.1499   81.6871 H   0  0  0  0  0  0  0  0  0  0  0  0
   31.3705   35.4762   81.5883 H   0  0  0  0  0  0  0  0  0  0  0  0
  1  2  2  0
  2  3  1  0
  3  4  2  0
  4  5  1  0
  5  6  1  0
  6  7  1  0
  7  8  2  0
  8  9  1  0
  9 10  2  0
 10 11  1  0
 11 12  1  0
 12 13  1  0
 13 14  1  0
 14 15  1  0
 15 16  1  0
 16 17  1  0
 17 18  1  0
 18 19  1  0
 19 20  1  0
 11 21  2  0
 21 22  1  0
 22 23  1  0
 23 24  2  0
 24 25  1  0
 25 26  2  0
 26 27  1  0
 27 28  2  0
  4 29  1  0
 29 30  2  0
 30  1  1  0
 22  5  2  0
 28 23  1  0
 21  7  1  0
 20 15  1  0
  1 31  1  0
  2 32  1  0
  3 33  1  0
  9 34  1  0
 10 35  1  0
 12 36  1  0
 13 37  1  0
 13 38  1  0
 14 39  1  0
 14 40  1  0
 15 41  1  0
 16 42  1  0
 16 43  1  0
 17 44  1  0
 17 45  1  0
 18 46  1  0
 18 47  1  0
 19 48  1  0
 19 49  1  0
 20 50  1  0
 20 51  1  0
 24 52  1  0
 25 53  1  0
 26 54  1  0
 27 55  1  0
 28 56  1  0
 29 57  1  0
 30 58  1  0
M  CHG  2  15   1  18   1
M  END
>  <meeko>  (3) 
{"free_energy": -11.756, "intermolecular_energy": -11.353, "internal_energy": -1.373}

$$$$

     RDKit          3D

 58 62  0  0  0  0  0  0  0  0999 V2000
   19.6100   37.0200   84.8870 C   0  0  0  0  0  0  0  0  0  0  0  0
   20.2570   37.9950   84.0370 C   0  0  0  0  0  0  0  0  0  0  0  0
   21.5090   38.5770   84.4320 C   0  0  0  0  0  0  0  0  0  0  0  0
   22.1090   38.1920   85.6800 C   0  0  0  0  0  0  0  0  0  0  0  0
   23.4210   38.8090   86.0550 C   0  0  0  0  0  0  0  0  0  0  0  0
   23.5080   39.7610   87.0520 O   0  0  0  0  0  0  0  0  0  0  0  0
   24.8210   40.1030   87.1250 C   0  0  0  0  0  0  0  0  0  0  0  0
   25.3980   41.0260   87.9850 N   0  0  0  0  0  0  0  0  0  0  0  0
   26.7280   41.2960   87.9780 C   0  0  0  0  0  0  0  0  0  0  0  0
   27.5950   40.6110   87.0880 C   0  0  0  0  0  0  0  0  0  0  0  0
   27.0490   39.6390   86.1730 C   0  0  0  0  0  0  0  0  0  0  0  0
   27.8550   38.9500   85.2910 N   0  0  0  0  0  0  0  0  0  0  0  0
   29.0250   39.5410   84.6540 C   0  0  0  0  0  0  0  0  0  0  0  0
   30.1790   38.5460   84.4950 C   0  0  0  0  0  0  0  0  0  0  0  0
   30.3530   37.9960   83.1270 N   0  0  0  0  0  4  0  0  0  0  0  0
   29.7160   36.6510   83.1450 C   0  0  0  0  0  0  0  0  0  0  0  0
   29.8480   35.9830   81.7640 C   0  0  0  0  0  0  0  0  0  0  0  0
   31.2930   35.9070   81.3940 N   0  0  0  0  0  4  0  0  0  0  0  0
   31.9350   37.2590   81.3800 C   0  0  0  0  0  0  0  0  0  0  0  0
   31.7990   37.8790   82.7870 C   0  0  0  0  0  0  0  0  0  0  0  0
   25.6070   39.3770   86.1980 C   0  0  0  0  0  0  0  0  0  0  0  0
   24.7880   38.5240   85.4650 C   0  0  0  0  0  0  0  0  0  0  0  0
   25.2180   37.5980   84.3870 C   0  0  0  0  0  0  0  0  0  0  0  0
   25.8970   38.1020   83.2250 C   0  0  0  0  0  0  0  0  0  0  0  0
   26.2900   37.1950   82.1880 C   0  0  0  0  0  0  0  0  0  0  0  0
   25.9990   35.7870   82.3200 C   0  0  0  0  0  0  0  0  0  0  0  0
   25.3190   35.2750   83.4890 C   0  0  0  0  0  0  0  0  0  0  0  0
   24.9270   36.1850   84.5230 C   0  0  0  0  0  0  0  0  0  0  0  0
   21.4360   37.2150   86.5200 C   0  0  0  0  0  0  0  0  0  0  0  0
   20.1980   36.6320   86.1330 C   0  0  0  0  0  0  0  0  0  0  0  0
   18.6559   36.5719   84.5726 H   0  0  0  0  0  0  0  0  0  0  0  0
   19.7893   38.2912   83.0865 H   0  0  0  0  0  0  0  0  0  0  0  0
   22.0060   39.3132   83.7831 H   0  0  0  0  0  0  0  0  0  0  0  0
   27.1363   42.0505   88.6665 H   0  0  0  0  0  0  0  0  0  0  0  0
   28.6750   40.8196   87.0958 H   0  0  0  0  0  0  0  0  0  0  0  0
   27.2530   38.6870   84.5370 H   0  0  0  0  0  0  0  0  0  0  0  0
   28.7359   39.9065   83.6576 H   0  0  0  0  0  0  0  0  0  0  0  0
   29.3779   40.3577   85.3009 H   0  0  0  0  0  0  0  0  0  0  0  0
   31.1110   39.0573   84.7777 H   0  0  0  0  0  0  0  0  0  0  0  0
   29.9357   37.6893   85.1407 H   0  0  0  0  0  0  0  0  0  0  0  0
   29.9390   38.5920   82.4400 H   0  0  0  0  0  0  0  0  0  0  0  0
   30.2115   36.0241   83.9010 H   0  0  0  0  0  0  0  0  0  0  0  0
   28.6494   36.7617   83.3903 H   0  0  0  0  0  0  0  0  0  0  0  0
   29.4240   34.9688   81.8034 H   0  0  0  0  0  0  0  0  0  0  0  0
   29.3037   36.5742   81.0128 H   0  0  0  0  0  0  0  0  0  0  0  0
   31.7660   35.3340   82.0630 H   0  0  0  0  0  0  0  0  0  0  0  0
   31.3700   35.5060   80.4810 H   0  0  0  0  0  0  0  0  0  0  0  0
   32.9990   37.1621   81.1183 H   0  0  0  0  0  0  0  0  0  0  0  0
   31.4439   37.9023   80.6350 H   0  0  0  0  0  0  0  0  0  0  0  0
   32.3004   37.2346   83.5242 H   0  0  0  0  0  0  0  0  0  0  0  0
   32.2663   38.8747   82.8015 H   0  0  0  0  0  0  0  0  0  0  0  0
   26.1134   39.1765   83.1325 H   0  0  0  0  0  0  0  0  0  0  0  0
   26.8113   37.5698   81.2948 H   0  0  0  0  0  0  0  0  0  0  0  0
   26.2988   35.0940   81.5201 H   0  0  0  0  0  0  0  0  0  0  0  0
   25.1055   34.2000   83.5828 H   0  0  0  0  0  0  0  0  0  0  0  0
   24.4066   35.8125   85.4177 H   0  0  0  0  0  0  0  0  0  0  0  0
   21.8942   36.9203   87.4756 H   0  0  0  0  0  0  0  0  0  0  0  0
   19.7005   35.8950   86.7805 H   0  0  0  0  0  0  0  0  0  0  0  0
  1  2  2  0
  2  3  1  0
  3  4  2  0
  4  5  1  0
  5  6  1  0
  6  7  1  0
  7  8  2  0
  8  9  1  0
  9 10  2  0
 10 11  1  0
 11 12  1  0
 12 13  1  0
 13 14  1  0
 14 15  1  0
 15 16  1  0
 16 17  1  0
 17 18  1  0
 18 19  1  0
 19 20  1  0
 11 21  2  0
 21 22  1  0
 22 23  1  0
 23 24  2  0
 24 25  1  0
 25 26  2  0
 26 27  1  0
 27 28  2  0
  4 29  1  0
 29 30  2  0
 30  1  1  0
 22  5  2  0
 28 23  1  0
 21  7  1  0
 20 15  1  0
  1 31  1  0
  2 32  1  0
  3 33  1  0
  9 34  1  0
 10 35  1  0
 12 36  1  0
 13 37  1  0
 13 38  1  0
 14 39  1  0
 14 40  1  0
 15 41  1  0
 16 42  1  0
 16 43  1  0
 17 44  1  0
 17 45  1  0
 18 46  1  0
 18 47  1  0
 19 48  1  0
 19 49  1  0
 20 50  1  0
 20 51  1  0
 24 52  1  0
 25 53  1  0
 26 54  1  0
 27 55  1  0
 28 56  1  0
 29 57  1  0
 30 58  1  0
M  CHG  2  15   1  18   1
M  END
>  <meeko>  (4) 
{"free_energy": -11.723, "intermolecular_energy": -11.568, "internal_energy": -1.115}

$$$$

     RDKit          3D

 58 62  0  0  0  0  0  0  0  0999 V2000
   19.5680   36.9150   85.7030 C   0  0  0  0  0  0  0  0  0  0  0  0
   20.6600   36.7830   86.6430 C   0  0  0  0  0  0  0  0  0  0  0  0
   22.0180   36.8250   86.1790 C   0  0  0  0  0  0  0  0  0  0  0  0
   22.2850   36.9900   84.7770 C   0  0  0  0  0  0  0  0  0  0  0  0
   23.7140   37.0440   84.3280 C   0  0  0  0  0  0  0  0  0  0  0  0
   24.2670   36.0300   83.5700 O   0  0  0  0  0  0  0  0  0  0  0  0
   25.5570   36.3940   83.3500 C   0  0  0  0  0  0  0  0  0  0  0  0
   26.5130   35.6900   82.6320 N   0  0  0  0  0  0  0  0  0  0  0  0
   27.7820   36.1430   82.4700 C   0  0  0  0  0  0  0  0  0  0  0  0
   28.1740   37.3900   83.0210 C   0  0  0  0  0  0  0  0  0  0  0  0
   27.2210   38.1640   83.7760 C   0  0  0  0  0  0  0  0  0  0  0  0
   27.5610   39.3810   84.3290 N   0  0  0  0  0  0  0  0  0  0  0  0
   27.7000   40.6020   83.5440 C   0  0  0  0  0  0  0  0  0  0  0  0
   29.0160   41.3350   83.8170 C   0  0  0  0  0  0  0  0  0  0  0  0
   28.9120   42.5000   84.7320 N   0  0  0  0  0  4  0  0  0  0  0  0
   29.4050   42.0250   86.0530 C   0  0  0  0  0  0  0  0  0  0  0  0
   29.3330   43.1640   87.0870 C   0  0  0  0  0  0  0  0  0  0  0  0
   27.9280   43.6630   87.1670 N   0  0  0  0  0  4  0  0  0  0  0  0
   27.4290   44.1360   85.8370 C   0  0  0  0  0  0  0  0  0  0  0  0
   27.4990   42.9580   84.8420 C   0  0  0  0  0  0  0  0  0  0  0  0
   25.8610   37.6430   83.9410 C   0  0  0  0  0  0  0  0  0  0  0  0
   24.7340   38.1330   84.5950 C   0  0  0  0  0  0  0  0  0  0  0  0
   24.6350   39.4080   85.3480 C   0  0  0  0  0  0  0  0  0  0  0  0
   24.1220   40.5890   84.7100 C   0  0  0  0  0  0  0  0  0  0  0  0
   24.0500   41.8150   85.4480 C   0  0  0  0  0  0  0  0  0  0  0  0
   24.4950   41.8520   86.8220 C   0  0  0  0  0  0  0  0  0  0  0  0
   25.0090   40.6650   87.4670 C   0  0  0  0  0  0  0  0  0  0  0  0
   25.0810   39.4410   86.7260 C   0  0  0  0  0  0  0  0  0  0  0  0
   21.1710   37.1140   83.8520 C   0  0  0  0  0  0  0  0  0  0  0  0
   19.8240   37.0770   84.3040 C   0  0  0  0  0  0  0  0  0  0  0  0
   18.5303   36.8906   86.0672 H   0  0  0  0  0  0  0  0  0  0  0  0
   20.4495   36.6503   87.7145 H   0  0  0  0  0  0  0  0  0  0  0  0
   22.8495   36.7314   86.8930 H   0  0  0  0  0  0  0  0  0  0  0  0
   28.5106   35.5399   81.9084 H   0  0  0  0  0  0  0  0  0  0  0  0
   29.1980   37.7636   82.8731 H   0  0  0  0  0  0  0  0  0  0  0  0
   28.4570   39.2360   84.7480 H   0  0  0  0  0  0  0  0  0  0  0  0
   27.6582   40.3403   82.4764 H   0  0  0  0  0  0  0  0  0  0  0  0
   26.8793   41.2759   83.8309 H   0  0  0  0  0  0  0  0  0  0  0  0
   29.7206   40.6159   84.2601 H   0  0  0  0  0  0  0  0  0  0  0  0
   29.3491   41.7360   82.8484 H   0  0  0  0  0  0  0  0  0  0  0  0
   29.4450   43.2750   84.3950 H   0  0  0  0  0  0  0  0  0  0  0  0
   28.7814   41.1851   86.3932 H   0  0  0  0  0  0  0  0  0  0  0  0
   30.4503   41.6983   85.9503 H   0  0  0  0  0  0  0  0  0  0  0  0
   29.6470   42.7878   88.0719 H   0  0  0  0  0  0  0  0  0  0  0  0
   30.0006   43.9836   86.7827 H   0  0  0  0  0  0  0  0  0  0  0  0
   27.3410   42.9180   87.4830 H   0  0  0  0  0  0  0  0  0  0  0  0
   27.8940   44.4260   87.8120 H   0  0  0  0  0  0  0  0  0  0  0  0
   26.3887   44.4806   85.9319 H   0  0  0  0  0  0  0  0  0  0  0  0
   28.0476   44.9714   85.4771 H   0  0  0  0  0  0  0  0  0  0  0  0
   26.8704   42.1312   85.2044 H   0  0  0  0  0  0  0  0  0  0  0  0
   27.1354   43.2822   83.8558 H   0  0  0  0  0  0  0  0  0  0  0  0
   23.7871   40.5521   83.6629 H   0  0  0  0  0  0  0  0  0  0  0  0
   23.6574   42.7247   84.9702 H   0  0  0  0  0  0  0  0  0  0  0  0
   24.4420   42.7958   87.3846 H   0  0  0  0  0  0  0  0  0  0  0  0
   25.3412   40.7011   88.5150 H   0  0  0  0  0  0  0  0  0  0  0  0
   25.4733   38.5299   87.2014 H   0  0  0  0  0  0  0  0  0  0  0  0
   21.3748   37.2393   82.7783 H   0  0  0  0  0  0  0  0  0  0  0  0
   18.9920   37.1713   83.5906 H   0  0  0  0  0  0  0  0  0  0  0  0
  1  2  2  0
  2  3  1  0
  3  4  2  0
  4  5  1  0
  5  6  1  0
  6  7  1  0
  7  8  2  0
  8  9  1  0
  9 10  2  0
 10 11  1  0
 11 12  1  0
 12 13  1  0
 13 14  1  0
 14 15  1  0
 15 16  1  0
 16 17  1  0
 17 18  1  0
 18 19  1  0
 19 20  1  0
 11 21  2  0
 21 22  1  0
 22 23  1  0
 23 24  2  0
 24 25  1  0
 25 26  2  0
 26 27  1  0
 27 28  2  0
  4 29  1  0
 29 30  2  0
 30  1  1  0
 22  5  2  0
 28 23  1  0
 21  7  1  0
 20 15  1  0
  1 31  1  0
  2 32  1  0
  3 33  1  0
  9 34  1  0
 10 35  1  0
 12 36  1  0
 13 37  1  0
 13 38  1  0
 14 39  1  0
 14 40  1  0
 15 41  1  0
 16 42  1  0
 16 43  1  0
 17 44  1  0
 17 45  1  0
 18 46  1  0
 18 47  1  0
 19 48  1  0
 19 49  1  0
 20 50  1  0
 20 51  1  0
 24 52  1  0
 25 53  1  0
 26 54  1  0
 27 55  1  0
 28 56  1  0
 29 57  1  0
 30 58  1  0
M  CHG  2  15   1  18   1
M  END
>  <meeko>  (5) 
{"free_energy": -11.66, "intermolecular_energy": -10.822, "internal_energy": -1.775}

$$$$

     RDKit          3D

 58 62  0  0  0  0  0  0  0  0999 V2000
   31.8160   39.0420   83.5650 C   0  0  0  0  0  0  0  0  0  0  0  0
   31.5310   37.6240   83.5530 C   0  0  0  0  0  0  0  0  0  0  0  0
   30.1710   37.1640   83.5120 C   0  0  0  0  0  0  0  0  0  0  0  0
   29.0980   38.1180   83.4920 C   0  0  0  0  0  0  0  0  0  0  0  0
   27.6920   37.6030   83.4360 C   0  0  0  0  0  0  0  0  0  0  0  0
   27.3360   36.5780   82.5820 O   0  0  0  0  0  0  0  0  0  0  0  0
   26.0090   36.3720   82.7830 C   0  0  0  0  0  0  0  0  0  0  0  0
   25.2020   35.4370   82.1500 N   0  0  0  0  0  0  0  0  0  0  0  0
   23.8790   35.3100   82.4250 C   0  0  0  0  0  0  0  0  0  0  0  0
   23.2690   36.1320   83.4080 C   0  0  0  0  0  0  0  0  0  0  0  0
   24.0610   37.1190   84.0990 C   0  0  0  0  0  0  0  0  0  0  0  0
   23.5070   37.9380   85.0610 N   0  0  0  0  0  0  0  0  0  0  0  0
   22.1540   37.7630   85.5730 C   0  0  0  0  0  0  0  0  0  0  0  0
   21.3230   39.0470   85.5040 C   0  0  0  0  0  0  0  0  0  0  0  0
   22.1100   40.3060   85.4470 N   0  0  0  0  0  4  0  0  0  0  0  0
   21.7090   41.0900   86.6460 C   0  0  0  0  0  0  0  0  0  0  0  0
   22.4670   42.4310   86.6810 C   0  0  0  0  0  0  0  0  0  0  0  0
   22.2000   43.1760   85.4160 N   0  0  0  0  0  4  0  0  0  0  0  0
   22.5990   42.3850   84.2090 C   0  0  0  0  0  0  0  0  0  0  0  0
   21.7980   41.0650   84.2040 C   0  0  0  0  0  0  0  0  0  0  0  0
   25.4850   37.2380   83.7720 C   0  0  0  0  0  0  0  0  0  0  0  0
   26.4970   38.0690   84.2440 C   0  0  0  0  0  0  0  0  0  0  0  0
   26.3610   39.1240   85.2790 C   0  0  0  0  0  0  0  0  0  0  0  0
   25.9310   40.4460   84.9160 C   0  0  0  0  0  0  0  0  0  0  0  0
   25.8220   41.4550   85.9270 C   0  0  0  0  0  0  0  0  0  0  0  0
   26.1470   41.1350   87.2970 C   0  0  0  0  0  0  0  0  0  0  0  0
   26.5780   39.8050   87.6670 C   0  0  0  0  0  0  0  0  0  0  0  0
   26.6870   38.7990   86.6530 C   0  0  0  0  0  0  0  0  0  0  0  0
   29.4100   39.5380   83.5110 C   0  0  0  0  0  0  0  0  0  0  0  0
   30.7530   40.0010   83.5480 C   0  0  0  0  0  0  0  0  0  0  0  0
   32.8602   39.3872   83.5874 H   0  0  0  0  0  0  0  0  0  0  0  0
   32.3565   36.8973   83.5753 H   0  0  0  0  0  0  0  0  0  0  0  0
   29.9524   36.0860   83.4960 H   0  0  0  0  0  0  0  0  0  0  0  0
   23.2765   34.5661   81.8832 H   0  0  0  0  0  0  0  0  0  0  0  0
   22.2001   36.0170   83.6410 H   0  0  0  0  0  0  0  0  0  0  0  0
   23.5190   38.8550   84.6620 H   0  0  0  0  0  0  0  0  0  0  0  0
   21.6509   36.9863   84.9783 H   0  0  0  0  0  0  0  0  0  0  0  0
   22.2350   37.4774   86.6322 H   0  0  0  0  0  0  0  0  0  0  0  0
   20.6939   38.9975   84.6030 H   0  0  0  0  0  0  0  0  0  0  0  0
   20.7464   39.0888   86.4398 H   0  0  0  0  0  0  0  0  0  0  0  0
   23.0920   40.1200   85.4380 H   0  0  0  0  0  0  0  0  0  0  0  0
   20.6270   41.2848   86.6080 H   0  0  0  0  0  0  0  0  0  0  0  0
   21.9546   40.5144   87.5506 H   0  0  0  0  0  0  0  0  0  0  0  0
   22.1222   43.0267   87.5391 H   0  0  0  0  0  0  0  0  0  0  0  0
   23.5464   42.2440   86.7802 H   0  0  0  0  0  0  0  0  0  0  0  0
   21.2210   43.3740   85.3610 H   0  0  0  0  0  0  0  0  0  0  0  0
   22.7230   44.0280   85.4280 H   0  0  0  0  0  0  0  0  0  0  0  0
   22.3746   42.9591   83.2979 H   0  0  0  0  0  0  0  0  0  0  0  0
   23.6778   42.1720   84.2367 H   0  0  0  0  0  0  0  0  0  0  0  0
   20.7212   41.2868   84.1673 H   0  0  0  0  0  0  0  0  0  0  0  0
   22.0725   40.4661   83.3231 H   0  0  0  0  0  0  0  0  0  0  0  0
   25.6873   40.6816   83.8695 H   0  0  0  0  0  0  0  0  0  0  0  0
   25.4919   42.4699   85.6606 H   0  0  0  0  0  0  0  0  0  0  0  0
   26.0657   41.9135   88.0699 H   0  0  0  0  0  0  0  0  0  0  0  0
   26.8191   39.5688   88.7139 H   0  0  0  0  0  0  0  0  0  0  0  0
   27.0170   37.7833   86.9165 H   0  0  0  0  0  0  0  0  0  0  0  0
   28.5887   40.2697   83.4964 H   0  0  0  0  0  0  0  0  0  0  0  0
   30.9724   41.0788   83.5633 H   0  0  0  0  0  0  0  0  0  0  0  0
  1  2  2  0
  2  3  1  0
  3  4  2  0
  4  5  1  0
  5  6  1  0
  6  7  1  0
  7  8  2  0
  8  9  1  0
  9 10  2  0
 10 11  1  0
 11 12  1  0
 12 13  1  0
 13 14  1  0
 14 15  1  0
 15 16  1  0
 16 17  1  0
 17 18  1  0
 18 19  1  0
 19 20  1  0
 11 21  2  0
 21 22  1  0
 22 23  1  0
 23 24  2  0
 24 25  1  0
 25 26  2  0
 26 27  1  0
 27 28  2  0
  4 29  1  0
 29 30  2  0
 30  1  1  0
 22  5  2  0
 28 23  1  0
 21  7  1  0
 20 15  1  0
  1 31  1  0
  2 32  1  0
  3 33  1  0
  9 34  1  0
 10 35  1  0
 12 36  1  0
 13 37  1  0
 13 38  1  0
 14 39  1  0
 14 40  1  0
 15 41  1  0
 16 42  1  0
 16 43  1  0
 17 44  1  0
 17 45  1  0
 18 46  1  0
 18 47  1  0
 19 48  1  0
 19 49  1  0
 20 50  1  0
 20 51  1  0
 24 52  1  0
 25 53  1  0
 26 54  1  0
 27 55  1  0
 28 56  1  0
 29 57  1  0
 30 58  1  0
M  CHG  2  15   1  18   1
M  END
>  <meeko>  (6) 
{"free_energy": -11.624, "intermolecular_energy": -10.801, "internal_energy": -1.749}

$$$$

     RDKit          3D

 58 62  0  0  0  0  0  0  0  0999 V2000
   31.5620   37.4660   82.9100 C   0  0  0  0  0  0  0  0  0  0  0  0
   30.9490   36.3090   82.2940 C   0  0  0  0  0  0  0  0  0  0  0  0
   29.5300   36.1120   82.3860 C   0  0  0  0  0  0  0  0  0  0  0  0
   28.7240   37.0640   83.0990 C   0  0  0  0  0  0  0  0  0  0  0  0
   27.2450   36.8340   83.1640 C   0  0  0  0  0  0  0  0  0  0  0  0
   26.6350   35.8630   82.3940 O   0  0  0  0  0  0  0  0  0  0  0  0
   25.3120   35.9320   82.6920 C   0  0  0  0  0  0  0  0  0  0  0  0
   24.2940   35.1470   82.1660 N   0  0  0  0  0  0  0  0  0  0  0  0
   22.9960   35.2960   82.5330 C   0  0  0  0  0  0  0  0  0  0  0  0
   22.6320   36.2630   83.5050 C   0  0  0  0  0  0  0  0  0  0  0  0
   23.6490   37.1040   84.0870 C   0  0  0  0  0  0  0  0  0  0  0  0
   23.3380   38.0570   85.0350 N   0  0  0  0  0  0  0  0  0  0  0  0
   22.0300   38.6930   85.1250 C   0  0  0  0  0  0  0  0  0  0  0  0
   21.9830   39.8040   86.1780 C   0  0  0  0  0  0  0  0  0  0  0  0
   21.9770   41.1860   85.6370 N   0  0  0  0  0  4  0  0  0  0  0  0
   22.3140   41.0600   84.1930 C   0  0  0  0  0  0  0  0  0  0  0  0
   22.3420   42.4510   83.5310 C   0  0  0  0  0  0  0  0  0  0  0  0
   23.3190   43.3170   84.2550 N   0  0  0  0  0  4  0  0  0  0  0  0
   22.9820   43.4410   85.7080 C   0  0  0  0  0  0  0  0  0  0  0  0
   22.9890   42.0290   86.3330 C   0  0  0  0  0  0  0  0  0  0  0  0
   25.0400   36.9260   83.6620 C   0  0  0  0  0  0  0  0  0  0  0  0
   26.2260   37.5600   84.0200 C   0  0  0  0  0  0  0  0  0  0  0  0
   26.3750   38.6650   85.0000 C   0  0  0  0  0  0  0  0  0  0  0  0
   26.6100   38.3770   86.3880 C   0  0  0  0  0  0  0  0  0  0  0  0
   26.7340   39.4570   87.3220 C   0  0  0  0  0  0  0  0  0  0  0  0
   26.6200   40.8200   86.8590 C   0  0  0  0  0  0  0  0  0  0  0  0
   26.3880   41.1140   85.4630 C   0  0  0  0  0  0  0  0  0  0  0  0
   26.2630   40.0320   84.5320 C   0  0  0  0  0  0  0  0  0  0  0  0
   29.3640   38.2150   83.7150 C   0  0  0  0  0  0  0  0  0  0  0  0
   30.7680   38.4180   83.6250 C   0  0  0  0  0  0  0  0  0  0  0  0
   32.6487   37.6152   82.8279 H   0  0  0  0  0  0  0  0  0  0  0  0
   31.5711   35.5796   81.7546 H   0  0  0  0  0  0  0  0  0  0  0  0
   29.0619   35.2362   81.9128 H   0  0  0  0  0  0  0  0  0  0  0  0
   22.2218   34.6634   82.0742 H   0  0  0  0  0  0  0  0  0  0  0  0
   21.5814   36.3707   83.8127 H   0  0  0  0  0  0  0  0  0  0  0  0
   23.9820   38.8040   84.8750 H   0  0  0  0  0  0  0  0  0  0  0  0
   21.7815   39.1265   84.1450 H   0  0  0  0  0  0  0  0  0  0  0  0
   21.3057   37.9212   85.4245 H   0  0  0  0  0  0  0  0  0  0  0  0
   21.0695   39.6683   86.7756 H   0  0  0  0  0  0  0  0  0  0  0  0
   22.9090   39.7091   86.7642 H   0  0  0  0  0  0  0  0  0  0  0  0
   21.0890   41.6250   85.7720 H   0  0  0  0  0  0  0  0  0  0  0  0
   23.3025   40.5885   84.0902 H   0  0  0  0  0  0  0  0  0  0  0  0
   21.5503   40.4418   83.6983 H   0  0  0  0  0  0  0  0  0  0  0  0
   22.6467   42.3520   82.4787 H   0  0  0  0  0  0  0  0  0  0  0  0
   21.3405   42.9036   83.5771 H   0  0  0  0  0  0  0  0  0  0  0  0
   24.2300   42.9130   84.1700 H   0  0  0  0  0  0  0  0  0  0  0  0
   23.3060   44.2280   83.8440 H   0  0  0  0  0  0  0  0  0  0  0  0
   23.7294   44.0730   86.2099 H   0  0  0  0  0  0  0  0  0  0  0  0
   21.9905   43.9020   85.8277 H   0  0  0  0  0  0  0  0  0  0  0  0
   23.9862   41.5793   86.2173 H   0  0  0  0  0  0  0  0  0  0  0  0
   22.7450   42.0950   87.4036 H   0  0  0  0  0  0  0  0  0  0  0  0
   26.6941   37.3353   86.7312 H   0  0  0  0  0  0  0  0  0  0  0  0
   26.9152   39.2485   88.3868 H   0  0  0  0  0  0  0  0  0  0  0  0
   26.7110   41.6465   87.5791 H   0  0  0  0  0  0  0  0  0  0  0  0
   26.3084   42.1559   85.1194 H   0  0  0  0  0  0  0  0  0  0  0  0
   26.0828   40.2381   83.4666 H   0  0  0  0  0  0  0  0  0  0  0  0
   28.7486   38.9442   84.2623 H   0  0  0  0  0  0  0  0  0  0  0  0
   31.2370   39.2935   84.0977 H   0  0  0  0  0  0  0  0  0  0  0  0
  1  2  2  0
  2  3  1  0
  3  4  2  0
  4  5  1  0
  5  6  1  0
  6  7  1  0
  7  8  2  0
  8  9  1  0
  9 10  2  0
 10 11  1  0
 11 12  1  0
 12 13  1  0
 13 14  1  0
 14 15  1  0
 15 16  1  0
 16 17  1  0
 17 18  1  0
 18 19  1  0
 19 20  1  0
 11 21  2  0
 21 22  1  0
 22 23  1  0
 23 24  2  0
 24 25  1  0
 25 26  2  0
 26 27  1  0
 27 28  2  0
  4 29  1  0
 29 30  2  0
 30  1  1  0
 22  5  2  0
 28 23  1  0
 21  7  1  0
 20 15  1  0
  1 31  1  0
  2 32  1  0
  3 33  1  0
  9 34  1  0
 10 35  1  0
 12 36  1  0
 13 37  1  0
 13 38  1  0
 14 39  1  0
 14 40  1  0
 15 41  1  0
 16 42  1  0
 16 43  1  0
 17 44  1  0
 17 45  1  0
 18 46  1  0
 18 47  1  0
 19 48  1  0
 19 49  1  0
 20 50  1  0
 20 51  1  0
 24 52  1  0
 25 53  1  0
 26 54  1  0
 27 55  1  0
 28 56  1  0
 29 57  1  0
 30 58  1  0
M  CHG  2  15   1  18   1
M  END
>  <meeko>  (7) 
{"free_energy": -11.594, "intermolecular_energy": -11.12, "internal_energy": -1.389}

$$$$

     RDKit          3D

 58 62  0  0  0  0  0  0  0  0999 V2000
   31.6420   39.5330   83.7230 C   0  0  0  0  0  0  0  0  0  0  0  0
   31.4990   38.0930   83.7060 C   0  0  0  0  0  0  0  0  0  0  0  0
   30.1940   37.5010   83.6110 C   0  0  0  0  0  0  0  0  0  0  0  0
   29.0330   38.3460   83.5430 C   0  0  0  0  0  0  0  0  0  0  0  0
   27.6880   37.6950   83.4320 C   0  0  0  0  0  0  0  0  0  0  0  0
   27.4540   36.6800   82.5250 O   0  0  0  0  0  0  0  0  0  0  0  0
   26.1520   36.3320   82.6870 C   0  0  0  0  0  0  0  0  0  0  0  0
   25.4570   35.3500   81.9940 N   0  0  0  0  0  0  0  0  0  0  0  0
   24.1480   35.0790   82.2320 C   0  0  0  0  0  0  0  0  0  0  0  0
   23.4400   35.7880   83.2360 C   0  0  0  0  0  0  0  0  0  0  0  0
   24.1140   36.8180   83.9890 C   0  0  0  0  0  0  0  0  0  0  0  0
   23.4620   37.5310   84.9730 N   0  0  0  0  0  0  0  0  0  0  0  0
   22.0610   37.3200   85.3140 C   0  0  0  0  0  0  0  0  0  0  0  0
   21.1070   38.1090   84.4120 C   0  0  0  0  0  0  0  0  0  0  0  0
   20.7610   39.4690   84.8970 N   0  0  0  0  0  4  0  0  0  0  0  0
   21.7840   40.3810   84.3170 C   0  0  0  0  0  0  0  0  0  0  0  0
   21.5200   41.8300   84.7670 C   0  0  0  0  0  0  0  0  0  0  0  0
   21.5110   41.8840   86.2590 N   0  0  0  0  0  4  0  0  0  0  0  0
   20.4840   40.9640   86.8420 C   0  0  0  0  0  0  0  0  0  0  0  0
   20.8020   39.5240   86.3850 C   0  0  0  0  0  0  0  0  0  0  0  0
   25.5240   37.0940   83.7000 C   0  0  0  0  0  0  0  0  0  0  0  0
   26.4370   38.0000   84.2320 C   0  0  0  0  0  0  0  0  0  0  0  0
   26.1760   38.9870   85.3090 C   0  0  0  0  0  0  0  0  0  0  0  0
   25.4100   40.1720   85.0370 C   0  0  0  0  0  0  0  0  0  0  0  0
   25.1820   41.1210   86.0860 C   0  0  0  0  0  0  0  0  0  0  0  0
   25.7260   40.8790   87.4020 C   0  0  0  0  0  0  0  0  0  0  0  0
   26.4940   39.6860   87.6800 C   0  0  0  0  0  0  0  0  0  0  0  0
   26.7210   38.7400   86.6290 C   0  0  0  0  0  0  0  0  0  0  0  0
   29.2030   39.7890   83.5680 C   0  0  0  0  0  0  0  0  0  0  0  0
   30.4920   40.3820   83.6580 C   0  0  0  0  0  0  0  0  0  0  0  0
   32.6453   39.9796   83.7866 H   0  0  0  0  0  0  0  0  0  0  0  0
   32.3905   37.4514   83.7659 H   0  0  0  0  0  0  0  0  0  0  0  0
   30.0834   36.4068   83.5904 H   0  0  0  0  0  0  0  0  0  0  0  0
   23.6337   34.3053   81.6430 H   0  0  0  0  0  0  0  0  0  0  0  0
   22.3845   35.5543   83.4392 H   0  0  0  0  0  0  0  0  0  0  0  0
   23.5200   38.4870   84.6850 H   0  0  0  0  0  0  0  0  0  0  0  0
   21.8326   36.2485   85.2157 H   0  0  0  0  0  0  0  0  0  0  0  0
   21.9131   37.6750   86.3446 H   0  0  0  0  0  0  0  0  0  0  0  0
   21.5782   38.2096   83.4232 H   0  0  0  0  0  0  0  0  0  0  0  0
   20.1646   37.5419   84.3929 H   0  0  0  0  0  0  0  0  0  0  0  0
   19.8350   39.7290   84.6200 H   0  0  0  0  0  0  0  0  0  0  0  0
   22.7827   40.0707   84.6580 H   0  0  0  0  0  0  0  0  0  0  0  0
   21.7297   40.3301   83.2195 H   0  0  0  0  0  0  0  0  0  0  0  0
   22.3130   42.4864   84.3794 H   0  0  0  0  0  0  0  0  0  0  0  0
   20.5481   42.1677   84.3780 H   0  0  0  0  0  0  0  0  0  0  0  0
   22.4120   41.6130   86.5950 H   0  0  0  0  0  0  0  0  0  0  0  0
   21.3030   42.8200   86.5450 H   0  0  0  0  0  0  0  0  0  0  0  0
   20.5156   41.0205   87.9401 H   0  0  0  0  0  0  0  0  0  0  0  0
   19.4796   41.2550   86.5008 H   0  0  0  0  0  0  0  0  0  0  0  0
   21.8039   39.2377   86.7375 H   0  0  0  0  0  0  0  0  0  0  0  0
   20.0603   38.8281   86.8039 H   0  0  0  0  0  0  0  0  0  0  0  0
   25.0018   40.3492   84.0311 H   0  0  0  0  0  0  0  0  0  0  0  0
   24.5949   42.0303   85.8899 H   0  0  0  0  0  0  0  0  0  0  0  0
   25.5536   41.6123   88.2036 H   0  0  0  0  0  0  0  0  0  0  0  0
   26.8992   39.5071   88.6869 H   0  0  0  0  0  0  0  0  0  0  0  0
   27.3068   37.8294   86.8229 H   0  0  0  0  0  0  0  0  0  0  0  0
   28.3152   40.4364   83.5162 H   0  0  0  0  0  0  0  0  0  0  0  0
   30.6035   41.4762   83.6774 H   0  0  0  0  0  0  0  0  0  0  0  0
  1  2  2  0
  2  3  1  0
  3  4  2  0
  4  5  1  0
  5  6  1  0
  6  7  1  0
  7  8  2  0
  8  9  1  0
  9 10  2  0
 10 11  1  0
 11 12  1  0
 12 13  1  0
 13 14  1  0
 14 15  1  0
 15 16  1  0
 16 17  1  0
 17 18  1  0
 18 19  1  0
 19 20  1  0
 11 21  2  0
 21 22  1  0
 22 23  1  0
 23 24  2  0
 24 25  1  0
 25 26  2  0
 26 27  1  0
 27 28  2  0
  4 29  1  0
 29 30  2  0
 30  1  1  0
 22  5  2  0
 28 23  1  0
 21  7  1  0
 20 15  1  0
  1 31  1  0
  2 32  1  0
  3 33  1  0
  9 34  1  0
 10 35  1  0
 12 36  1  0
 13 37  1  0
 13 38  1  0
 14 39  1  0
 14 40  1  0
 15 41  1  0
 16 42  1  0
 16 43  1  0
 17 44  1  0
 17 45  1  0
 18 46  1  0
 18 47  1  0
 19 48  1  0
 19 49  1  0
 20 50  1  0
 20 51  1  0
 24 52  1  0
 25 53  1  0
 26 54  1  0
 27 55  1  0
 28 56  1  0
 29 57  1  0
 30 58  1  0
M  CHG  2  15   1  18   1
M  END
>  <meeko>  (8) 
{"free_energy": -11.494, "intermolecular_energy": -10.977, "internal_energy": -1.397}

$$$$

     RDKit          3D

 58 62  0  0  0  0  0  0  0  0999 V2000
   19.5670   36.9350   86.0140 C   0  0  0  0  0  0  0  0  0  0  0  0
   20.7090   36.6750   86.8640 C   0  0  0  0  0  0  0  0  0  0  0  0
   22.0350   36.6980   86.3130 C   0  0  0  0  0  0  0  0  0  0  0  0
   22.2190   36.9720   84.9150 C   0  0  0  0  0  0  0  0  0  0  0  0
   23.6170   37.0020   84.3760 C   0  0  0  0  0  0  0  0  0  0  0  0
   24.1160   35.9630   83.6140 O   0  0  0  0  0  0  0  0  0  0  0  0
   25.3910   36.3100   83.3040 C   0  0  0  0  0  0  0  0  0  0  0  0
   26.2960   35.5790   82.5470 N   0  0  0  0  0  0  0  0  0  0  0  0
   27.5560   36.0170   82.2930 C   0  0  0  0  0  0  0  0  0  0  0  0
   27.9890   37.2760   82.7830 C   0  0  0  0  0  0  0  0  0  0  0  0
   27.0890   38.0790   83.5740 C   0  0  0  0  0  0  0  0  0  0  0  0
   27.4700   39.3090   84.0690 N   0  0  0  0  0  0  0  0  0  0  0  0
   28.7440   39.9390   83.7440 C   0  0  0  0  0  0  0  0  0  0  0  0
   28.7070   41.4620   83.8970 C   0  0  0  0  0  0  0  0  0  0  0  0
   29.7240   42.0270   84.8200 N   0  0  0  0  0  4  0  0  0  0  0  0
   30.8660   41.0730   84.8030 C   0  0  0  0  0  0  0  0  0  0  0  0
   31.9830   41.5650   85.7420 C   0  0  0  0  0  0  0  0  0  0  0  0
   31.4260   41.7380   87.1160 N   0  0  0  0  0  4  0  0  0  0  0  0
   30.2740   42.6950   87.1330 C   0  0  0  0  0  0  0  0  0  0  0  0
   29.1720   42.1500   86.1990 C   0  0  0  0  0  0  0  0  0  0  0  0
   25.7390   37.5730   83.8390 C   0  0  0  0  0  0  0  0  0  0  0  0
   24.6590   38.0900   84.5480 C   0  0  0  0  0  0  0  0  0  0  0  0
   24.6150   39.3870   85.2680 C   0  0  0  0  0  0  0  0  0  0  0  0
   24.9930   39.4620   86.6530 C   0  0  0  0  0  0  0  0  0  0  0  0
   24.9280   40.7190   87.3350 C   0  0  0  0  0  0  0  0  0  0  0  0
   24.4820   41.8970   86.6270 C   0  0  0  0  0  0  0  0  0  0  0  0
   24.1040   41.8260   85.2330 C   0  0  0  0  0  0  0  0  0  0  0  0
   24.1690   40.5660   84.5550 C   0  0  0  0  0  0  0  0  0  0  0  0
   21.0560   37.2240   84.0810 C   0  0  0  0  0  0  0  0  0  0  0  0
   19.7400   37.2060   84.6190 C   0  0  0  0  0  0  0  0  0  0  0  0
   18.5548   36.9243   86.4446 H   0  0  0  0  0  0  0  0  0  0  0  0
   20.5613   36.4597   87.9326 H   0  0  0  0  0  0  0  0  0  0  0  0
   22.9052   36.5068   86.9581 H   0  0  0  0  0  0  0  0  0  0  0  0
   28.2443   35.3926   81.7045 H   0  0  0  0  0  0  0  0  0  0  0  0
   29.0040   37.6373   82.5612 H   0  0  0  0  0  0  0  0  0  0  0  0
   27.4800   39.1980   85.0630 H   0  0  0  0  0  0  0  0  0  0  0  0
   29.5168   39.5367   84.4155 H   0  0  0  0  0  0  0  0  0  0  0  0
   28.9648   39.7166   82.6896 H   0  0  0  0  0  0  0  0  0  0  0  0
   28.8629   41.9082   82.9037 H   0  0  0  0  0  0  0  0  0  0  0  0
   27.7275   41.7022   84.3361 H   0  0  0  0  0  0  0  0  0  0  0  0
   30.0030   42.9440   84.5350 H   0  0  0  0  0  0  0  0  0  0  0  0
   30.5188   40.0844   85.1379 H   0  0  0  0  0  0  0  0  0  0  0  0
   31.2617   41.0046   83.7789 H   0  0  0  0  0  0  0  0  0  0  0  0
   32.7970   40.8255   85.7651 H   0  0  0  0  0  0  0  0  0  0  0  0
   32.3762   42.5257   85.3782 H   0  0  0  0  0  0  0  0  0  0  0  0
   31.1090   40.8500   87.4480 H   0  0  0  0  0  0  0  0  0  0  0  0
   32.1460   42.0920   87.7120 H   0  0  0  0  0  0  0  0  0  0  0  0
   29.8817   42.7856   88.1567 H   0  0  0  0  0  0  0  0  0  0  0  0
   30.6026   43.6872   86.7901 H   0  0  0  0  0  0  0  0  0  0  0  0
   28.8424   41.1624   86.5541 H   0  0  0  0  0  0  0  0  0  0  0  0
   28.3129   42.8370   86.1963 H   0  0  0  0  0  0  0  0  0  0  0  0
   25.3298   38.5600   87.1849 H   0  0  0  0  0  0  0  0  0  0  0  0
   25.2166   40.7878   88.3942 H   0  0  0  0  0  0  0  0  0  0  0  0
   24.4293   42.8604   87.1553 H   0  0  0  0  0  0  0  0  0  0  0  0
   23.7706   42.7286   84.6999 H   0  0  0  0  0  0  0  0  0  0  0  0
   23.8810   40.4941   83.4958 H   0  0  0  0  0  0  0  0  0  0  0  0
   21.1968   37.4332   83.0103 H   0  0  0  0  0  0  0  0  0  0  0  0
   18.8695   37.3971   83.9742 H   0  0  0  0  0  0  0  0  0  0  0  0
  1  2  2  0
  2  3  1  0
  3  4  2  0
  4  5  1  0
  5  6  1  0
  6  7  1  0
  7  8  2  0
  8  9  1  0
  9 10  2  0
 10 11  1  0
 11 12  1  0
 12 13  1  0
 13 14  1  0
 14 15  1  0
 15 16  1  0
 16 17  1  0
 17 18  1  0
 18 19  1  0
 19 20  1  0
 11 21  2  0
 21 22  1  0
 22 23  1  0
 23 24  2  0
 24 25  1  0
 25 26  2  0
 26 27  1  0
 27 28  2  0
  4 29  1  0
 29 30  2  0
 30  1  1  0
 22  5  2  0
 28 23  1  0
 21  7  1  0
 20 15  1  0
  1 31  1  0
  2 32  1  0
  3 33  1  0
  9 34  1  0
 10 35  1  0
 12 36  1  0
 13 37  1  0
 13 38  1  0
 14 39  1  0
 14 40  1  0
 15 41  1  0
 16 42  1  0
 16 43  1  0
 17 44  1  0
 17 45  1  0
 18 46  1  0
 18 47  1  0
 19 48  1  0
 19 49  1  0
 20 50  1  0
 20 51  1  0
 24 52  1  0
 25 53  1  0
 26 54  1  0
 27 55  1  0
 28 56  1  0
 29 57  1  0
 30 58  1  0
M  CHG  2  15   1  18   1
M  END
>  <meeko>  (9) 
{"free_energy": -11.424, "intermolecular_energy": -10.75, "internal_energy": -1.529}

$$$$

     RDKit          3D

 58 62  0  0  0  0  0  0  0  0999 V2000
   19.5680   36.6320   86.0460 C   0  0  0  0  0  0  0  0  0  0  0  0
   20.7160   36.2170   86.8230 C   0  0  0  0  0  0  0  0  0  0  0  0
   22.0370   36.3390   86.2740 C   0  0  0  0  0  0  0  0  0  0  0  0
   22.2120   36.8660   84.9490 C   0  0  0  0  0  0  0  0  0  0  0  0
   23.6050   36.9920   84.4140 C   0  0  0  0  0  0  0  0  0  0  0  0
   24.2210   35.9430   83.7590 O   0  0  0  0  0  0  0  0  0  0  0  0
   25.4560   36.3920   83.4190 C   0  0  0  0  0  0  0  0  0  0  0  0
   26.4430   35.6910   82.7410 N   0  0  0  0  0  0  0  0  0  0  0  0
   27.6520   36.2340   82.4480 C   0  0  0  0  0  0  0  0  0  0  0  0
   27.9430   37.5750   82.8110 C   0  0  0  0  0  0  0  0  0  0  0  0
   26.9530   38.3510   83.5160 C   0  0  0  0  0  0  0  0  0  0  0  0
   27.1950   39.6570   83.8880 N   0  0  0  0  0  0  0  0  0  0  0  0
   28.1300   40.0230   84.9440 C   0  0  0  0  0  0  0  0  0  0  0  0
   29.1930   41.0210   84.4750 C   0  0  0  0  0  0  0  0  0  0  0  0
   30.5440   40.4460   84.2540 N   0  0  0  0  0  4  0  0  0  0  0  0
   30.7420   40.4250   82.7790 C   0  0  0  0  0  0  0  0  0  0  0  0
   32.1220   39.8350   82.4370 C   0  0  0  0  0  0  0  0  0  0  0  0
   32.2300   38.4690   83.0300 N   0  0  0  0  0  4  0  0  0  0  0  0
   32.0280   38.4890   84.5130 C   0  0  0  0  0  0  0  0  0  0  0  0
   30.6250   39.0650   84.8070 C   0  0  0  0  0  0  0  0  0  0  0  0
   25.6610   37.7320   83.8270 C   0  0  0  0  0  0  0  0  0  0  0  0
   24.5230   38.1970   84.4790 C   0  0  0  0  0  0  0  0  0  0  0  0
   24.3330   39.5460   85.0670 C   0  0  0  0  0  0  0  0  0  0  0  0
   23.8440   40.6290   84.2570 C   0  0  0  0  0  0  0  0  0  0  0  0
   23.6820   41.9280   84.8390 C   0  0  0  0  0  0  0  0  0  0  0  0
   24.0140   42.1370   86.2290 C   0  0  0  0  0  0  0  0  0  0  0  0
   24.5030   41.0500   87.0470 C   0  0  0  0  0  0  0  0  0  0  0  0
   24.6640   39.7530   86.4620 C   0  0  0  0  0  0  0  0  0  0  0  0
   21.0420   37.2710   84.1870 C   0  0  0  0  0  0  0  0  0  0  0  0
   19.7310   37.1560   84.7240 C   0  0  0  0  0  0  0  0  0  0  0  0
   18.5593   36.5439   86.4759 H   0  0  0  0  0  0  0  0  0  0  0  0
   20.5766   35.8079   87.8345 H   0  0  0  0  0  0  0  0  0  0  0  0
   22.9115   36.0302   86.8655 H   0  0  0  0  0  0  0  0  0  0  0  0
   28.4103   35.6316   81.9264 H   0  0  0  0  0  0  0  0  0  0  0  0
   28.9166   38.0190   82.5564 H   0  0  0  0  0  0  0  0  0  0  0  0
   26.3100   40.0110   84.1870 H   0  0  0  0  0  0  0  0  0  0  0  0
   27.5651   40.4746   85.7728 H   0  0  0  0  0  0  0  0  0  0  0  0
   28.6512   39.1065   85.2576 H   0  0  0  0  0  0  0  0  0  0  0  0
   28.8513   41.4622   83.5270 H   0  0  0  0  0  0  0  0  0  0  0  0
   29.3021   41.7557   85.2864 H   0  0  0  0  0  0  0  0  0  0  0  0
   31.2480   40.9870   84.7140 H   0  0  0  0  0  0  0  0  0  0  0  0
   29.9580   39.8080   82.3158 H   0  0  0  0  0  0  0  0  0  0  0  0
   30.6859   41.4540   82.3943 H   0  0  0  0  0  0  0  0  0  0  0  0
   32.2354   39.7723   81.3446 H   0  0  0  0  0  0  0  0  0  0  0  0
   32.9128   40.4805   82.8468 H   0  0  0  0  0  0  0  0  0  0  0  0
   31.5310   37.8850   82.6190 H   0  0  0  0  0  0  0  0  0  0  0  0
   33.1420   38.1060   82.8360 H   0  0  0  0  0  0  0  0  0  0  0  0
   32.1006   37.4663   84.9115 H   0  0  0  0  0  0  0  0  0  0  0  0
   32.7993   39.1109   84.9909 H   0  0  0  0  0  0  0  0  0  0  0  0
   29.8596   38.4324   84.3337 H   0  0  0  0  0  0  0  0  0  0  0  0
   30.4520   39.0880   85.8931 H   0  0  0  0  0  0  0  0  0  0  0  0
   23.5962   40.4612   83.1985 H   0  0  0  0  0  0  0  0  0  0  0  0
   23.3062   42.7631   84.2295 H   0  0  0  0  0  0  0  0  0  0  0  0
   23.8931   43.1369   86.6712 H   0  0  0  0  0  0  0  0  0  0  0  0
   24.7485   41.2172   88.1061 H   0  0  0  0  0  0  0  0  0  0  0  0
   25.0380   38.9162   87.0702 H   0  0  0  0  0  0  0  0  0  0  0  0
   21.1742   37.6753   83.1726 H   0  0  0  0  0  0  0  0  0  0  0  0
   18.8559   37.4647   84.1333 H   0  0  0  0  0  0  0  0  0  0  0  0
  1  2  2  0
  2  3  1  0
  3  4  2  0
  4  5  1  0
  5  6  1  0
  6  7  1  0
  7  8  2  0
  8  9  1  0
  9 10  2  0
 10 11  1  0
 11 12  1  0
 12 13  1  0
 13 14  1  0
 14 15  1  0
 15 16  1  0
 16 17  1  0
 17 18  1  0
 18 19  1  0
 19 20  1  0
 11 21  2  0
 21 22  1  0
 22 23  1  0
 23 24  2  0
 24 25  1  0
 25 26  2  0
 26 27  1  0
 27 28  2  0
  4 29  1  0
 29 30  2  0
 30  1  1  0
 22  5  2  0
 28 23  1  0
 21  7  1  0
 20 15  1  0
  1 31  1  0
  2 32  1  0
  3 33  1  0
  9 34  1  0
 10 35  1  0
 12 36  1  0
 13 37  1  0
 13 38  1  0
 14 39  1  0
 14 40  1  0
 15 41  1  0
 16 42  1  0
 16 43  1  0
 17 44  1  0
 17 45  1  0
 18 46  1  0
 18 47  1  0
 19 48  1  0
 19 49  1  0
 20 50  1  0
 20 51  1  0
 24 52  1  0
 25 53  1  0
 26 54  1  0
 27 55  1  0
 28 56  1  0
 29 57  1  0
 30 58  1  0
M  CHG  2  15   1  18   1
M  END
>  <meeko>  (10) 
{"free_energy": -11.408, "intermolecular_energy": -10.551, "internal_energy": -1.706}

$$$$

     RDKit          3D

 58 62  0  0  0  0  0  0  0  0999 V2000
   27.6500   36.8130   82.7160 C   0  0  0  0  0  0  0  0  0  0  0  0
   26.5280   35.9840   82.3330 C   0  0  0  0  0  0  0  0  0  0  0  0
   25.2490   36.1710   82.9580 C   0  0  0  0  0  0  0  0  0  0  0  0
   25.0920   37.1780   83.9690 C   0  0  0  0  0  0  0  0  0  0  0  0
   23.7400   37.3550   84.5910 C   0  0  0  0  0  0  0  0  0  0  0  0
   22.9340   36.2710   84.8780 O   0  0  0  0  0  0  0  0  0  0  0  0
   21.8000   36.7860   85.4180 C   0  0  0  0  0  0  0  0  0  0  0  0
   20.6920   36.0790   85.8670 N   0  0  0  0  0  0  0  0  0  0  0  0
   19.6020   36.6920   86.3940 C   0  0  0  0  0  0  0  0  0  0  0  0
   19.5680   38.1040   86.5300 C   0  0  0  0  0  0  0  0  0  0  0  0
   20.6930   38.8880   86.0820 C   0  0  0  0  0  0  0  0  0  0  0  0
   20.7010   40.2630   86.1940 N   0  0  0  0  0  0  0  0  0  0  0  0
   20.6750   40.9570   87.4760 C   0  0  0  0  0  0  0  0  0  0  0  0
   21.8750   40.6100   88.3610 C   0  0  0  0  0  0  0  0  0  0  0  0
   22.5050   41.7650   89.0500 N   0  0  0  0  0  4  0  0  0  0  0  0
   22.4040   42.9090   88.1040 C   0  0  0  0  0  0  0  0  0  0  0  0
   23.0400   44.1670   88.7230 C   0  0  0  0  0  0  0  0  0  0  0  0
   24.4580   43.8710   89.0850 N   0  0  0  0  0  4  0  0  0  0  0  0
   24.5610   42.7170   90.0330 C   0  0  0  0  0  0  0  0  0  0  0  0
   23.9330   41.4760   89.3630 C   0  0  0  0  0  0  0  0  0  0  0  0
   21.8510   38.1970   85.5070 C   0  0  0  0  0  0  0  0  0  0  0  0
   23.0620   38.6500   84.9930 C   0  0  0  0  0  0  0  0  0  0  0  0
   23.5060   40.0630   84.8950 C   0  0  0  0  0  0  0  0  0  0  0  0
   24.4750   40.5860   85.8190 C   0  0  0  0  0  0  0  0  0  0  0  0
   24.8790   41.9570   85.7180 C   0  0  0  0  0  0  0  0  0  0  0  0
   24.3060   42.7990   84.6930 C   0  0  0  0  0  0  0  0  0  0  0  0
   23.3330   42.2760   83.7610 C   0  0  0  0  0  0  0  0  0  0  0  0
   22.9310   40.9050   83.8650 C   0  0  0  0  0  0  0  0  0  0  0  0
   26.2360   37.9950   84.3410 C   0  0  0  0  0  0  0  0  0  0  0  0
   27.5050   37.8180   83.7250 C   0  0  0  0  0  0  0  0  0  0  0  0
   28.6247   36.6696   82.2268 H   0  0  0  0  0  0  0  0  0  0  0  0
   26.6549   35.2096   81.5622 H   0  0  0  0  0  0  0  0  0  0  0  0
   24.3934   35.5456   82.6635 H   0  0  0  0  0  0  0  0  0  0  0  0
   18.7397   36.0907   86.7177 H   0  0  0  0  0  0  0  0  0  0  0  0
   18.6905   38.5970   86.9737 H   0  0  0  0  0  0  0  0  0  0  0  0
   19.8790   40.5690   85.7150 H   0  0  0  0  0  0  0  0  0  0  0  0
   20.6774   42.0410   87.2893 H   0  0  0  0  0  0  0  0  0  0  0  0
   19.7668   40.6375   88.0080 H   0  0  0  0  0  0  0  0  0  0  0  0
   21.5376   39.8980   89.1286 H   0  0  0  0  0  0  0  0  0  0  0  0
   22.6424   40.1987   87.6888 H   0  0  0  0  0  0  0  0  0  0  0  0
   22.0510   41.9610   89.9190 H   0  0  0  0  0  0  0  0  0  0  0  0
   22.9300   42.6571   87.1713 H   0  0  0  0  0  0  0  0  0  0  0  0
   21.3429   43.1090   87.8938 H   0  0  0  0  0  0  0  0  0  0  0  0
   23.0102   44.9909   87.9948 H   0  0  0  0  0  0  0  0  0  0  0  0
   22.4811   44.4591   89.6243 H   0  0  0  0  0  0  0  0  0  0  0  0
   24.9610   43.6460   88.2510 H   0  0  0  0  0  0  0  0  0  0  0  0
   24.8550   44.6800   89.5190 H   0  0  0  0  0  0  0  0  0  0  0  0
   25.6182   42.5193   90.2635 H   0  0  0  0  0  0  0  0  0  0  0  0
   24.0313   42.9491   90.9687 H   0  0  0  0  0  0  0  0  0  0  0  0
   24.4747   41.2444   88.4341 H   0  0  0  0  0  0  0  0  0  0  0  0
   23.9976   40.6136   90.0428 H   0  0  0  0  0  0  0  0  0  0  0  0
   24.9033   39.9383   86.5981 H   0  0  0  0  0  0  0  0  0  0  0  0
   25.6222   42.3668   86.4178 H   0  0  0  0  0  0  0  0  0  0  0  0
   24.6145   43.8524   84.6211 H   0  0  0  0  0  0  0  0  0  0  0  0
   22.9061   42.9233   82.9808 H   0  0  0  0  0  0  0  0  0  0  0  0
   22.1886   40.4928   83.1657 H   0  0  0  0  0  0  0  0  0  0  0  0
   26.1169   38.7667   85.1158 H   0  0  0  0  0  0  0  0  0  0  0  0
   28.3612   38.4429   84.0188 H   0  0  0  0  0  0  0  0  0  0  0  0
  1  2  2  0
  2  3  1  0
  3  4  2  0
  4  5  1  0
  5  6  1  0
  6  7  1  0
  7  8  2  0
  8  9  1  0
  9 10  2  0
 10 11  1  0
 11 12  1  0
 12 13  1  0
 13 14  1  0
 14 15  1  0
 15 16  1  0
 16 17  1  0
 17 18  1  0
 18 19  1  0
 19 20  1  0
 11 21  2  0
 21 22  1  0
 22 23  1  0
 23 24  2  0
 24 25  1  0
 25 26  2  0
 26 27  1  0
 27 28  2  0
  4 29  1  0
 29 30  2  0
 30  1  1  0
 22  5  2  0
 28 23  1  0
 21  7  1  0
 20 15  1  0
  1 31  1  0
  2 32  1  0
  3 33  1  0
  9 34  1  0
 10 35  1  0
 12 36  1  0
 13 37  1  0
 13 38  1  0
 14 39  1  0
 14 40  1  0
 15 41  1  0
 16 42  1  0
 16 43  1  0
 17 44  1  0
 17 45  1  0
 18 46  1  0
 18 47  1  0
 19 48  1  0
 19 49  1  0
 20 50  1  0
 20 51  1  0
 24 52  1  0
 25 53  1  0
 26 54  1  0
 27 55  1  0
 28 56  1  0
 29 57  1  0
 30 58  1  0
M  CHG  2  15   1  18   1
M  END
>  <meeko>  (11) 
{"free_energy": -11.387, "intermolecular_energy": -10.546, "internal_energy": -1.683}

$$$$

     RDKit          3D

 58 62  0  0  0  0  0  0  0  0999 V2000
   26.2980   35.5790   82.6500 C   0  0  0  0  0  0  0  0  0  0  0  0
   27.0950   36.7860   82.6590 C   0  0  0  0  0  0  0  0  0  0  0  0
   26.5480   38.0060   83.1840 C   0  0  0  0  0  0  0  0  0  0  0  0
   25.2040   38.0210   83.6920 C   0  0  0  0  0  0  0  0  0  0  0  0
   24.6700   39.3070   84.2450 C   0  0  0  0  0  0  0  0  0  0  0  0
   25.4050   40.4750   84.1850 O   0  0  0  0  0  0  0  0  0  0  0  0
   24.6360   41.4270   84.7730 C   0  0  0  0  0  0  0  0  0  0  0  0
   24.9520   42.7670   84.9480 N   0  0  0  0  0  0  0  0  0  0  0  0
   24.1080   43.6420   85.5520 C   0  0  0  0  0  0  0  0  0  0  0  0
   22.8380   43.2110   86.0130 C   0  0  0  0  0  0  0  0  0  0  0  0
   22.4560   41.8290   85.8560 C   0  0  0  0  0  0  0  0  0  0  0  0
   21.2310   41.3690   86.2910 N   0  0  0  0  0  0  0  0  0  0  0  0
   20.8450   41.3370   87.6960 C   0  0  0  0  0  0  0  0  0  0  0  0
   21.8910   40.6540   88.5820 C   0  0  0  0  0  0  0  0  0  0  0  0
   22.5050   41.5230   89.6180 N   0  0  0  0  0  4  0  0  0  0  0  0
   21.7300   42.7940   89.5950 C   0  0  0  0  0  0  0  0  0  0  0  0
   22.2940   43.7790   90.6360 C   0  0  0  0  0  0  0  0  0  0  0  0
   23.7430   44.0080   90.3570 N   0  0  0  0  0  4  0  0  0  0  0  0
   24.5220   42.7290   90.3760 C   0  0  0  0  0  0  0  0  0  0  0  0
   23.9370   41.7850   89.3030 C   0  0  0  0  0  0  0  0  0  0  0  0
   23.3940   40.9070   85.2090 C   0  0  0  0  0  0  0  0  0  0  0  0
   23.3310   39.5490   84.9130 C   0  0  0  0  0  0  0  0  0  0  0  0
   22.2030   38.6320   85.2130 C   0  0  0  0  0  0  0  0  0  0  0  0
   22.1860   37.8760   86.4350 C   0  0  0  0  0  0  0  0  0  0  0  0
   21.0970   36.9840   86.6980 C   0  0  0  0  0  0  0  0  0  0  0  0
   20.0290   36.8520   85.7330 C   0  0  0  0  0  0  0  0  0  0  0  0
   20.0410   37.6130   84.5040 C   0  0  0  0  0  0  0  0  0  0  0  0
   21.1330   38.5030   84.2440 C   0  0  0  0  0  0  0  0  0  0  0  0
   24.4220   36.7970   83.6670 C   0  0  0  0  0  0  0  0  0  0  0  0
   24.9580   35.5850   83.1520 C   0  0  0  0  0  0  0  0  0  0  0  0
   26.7264   34.6468   82.2532 H   0  0  0  0  0  0  0  0  0  0  0  0
   28.1212   36.7696   82.2633 H   0  0  0  0  0  0  0  0  0  0  0  0
   27.1545   38.9236   83.1971 H   0  0  0  0  0  0  0  0  0  0  0  0
   24.4108   44.6911   85.6846 H   0  0  0  0  0  0  0  0  0  0  0  0
   22.1491   43.9256   86.4870 H   0  0  0  0  0  0  0  0  0  0  0  0
   21.1860   40.4170   85.9860 H   0  0  0  0  0  0  0  0  0  0  0  0
   20.7078   42.3705   88.0467 H   0  0  0  0  0  0  0  0  0  0  0  0
   19.9150   40.7545   87.7714 H   0  0  0  0  0  0  0  0  0  0  0  0
   21.4061   39.8079   89.0909 H   0  0  0  0  0  0  0  0  0  0  0  0
   22.7094   40.3522   87.9118 H   0  0  0  0  0  0  0  0  0  0  0  0
   22.4780   41.0900   90.5180 H   0  0  0  0  0  0  0  0  0  0  0  0
   21.7996   43.2441   88.5937 H   0  0  0  0  0  0  0  0  0  0  0  0
   20.6789   42.5782   89.8372 H   0  0  0  0  0  0  0  0  0  0  0  0
   21.7512   44.7336   90.5719 H   0  0  0  0  0  0  0  0  0  0  0  0
   22.1727   43.3605   91.6460 H   0  0  0  0  0  0  0  0  0  0  0  0
   23.8330   44.4250   89.4530 H   0  0  0  0  0  0  0  0  0  0  0  0
   24.1120   44.6190   91.0570 H   0  0  0  0  0  0  0  0  0  0  0  0
   25.5793   42.9348   90.1529 H   0  0  0  0  0  0  0  0  0  0  0  0
   24.4541   42.2603   91.3688 H   0  0  0  0  0  0  0  0  0  0  0  0
   24.0166   42.2575   88.3128 H   0  0  0  0  0  0  0  0  0  0  0  0
   24.4959   40.8376   89.2962 H   0  0  0  0  0  0  0  0  0  0  0  0
   23.0037   37.9817   87.1632 H   0  0  0  0  0  0  0  0  0  0  0  0
   21.0734   36.4015   87.6308 H   0  0  0  0  0  0  0  0  0  0  0  0
   19.1959   36.1632   85.9366 H   0  0  0  0  0  0  0  0  0  0  0  0
   19.2216   37.5099   83.7773 H   0  0  0  0  0  0  0  0  0  0  0  0
   21.1593   39.0866   83.3119 H   0  0  0  0  0  0  0  0  0  0  0  0
   23.3927   36.8081   84.0550 H   0  0  0  0  0  0  0  0  0  0  0  0
   24.3524   34.6668   83.1397 H   0  0  0  0  0  0  0  0  0  0  0  0
  1  2  2  0
  2  3  1  0
  3  4  2  0
  4  5  1  0
  5  6  1  0
  6  7  1  0
  7  8  2  0
  8  9  1  0
  9 10  2  0
 10 11  1  0
 11 12  1  0
 12 13  1  0
 13 14  1  0
 14 15  1  0
 15 16  1  0
 16 17  1  0
 17 18  1  0
 18 19  1  0
 19 20  1  0
 11 21  2  0
 21 22  1  0
 22 23  1  0
 23 24  2  0
 24 25  1  0
 25 26  2  0
 26 27  1  0
 27 28  2  0
  4 29  1  0
 29 30  2  0
 30  1  1  0
 22  5  2  0
 28 23  1  0
 21  7  1  0
 20 15  1  0
  1 31  1  0
  2 32  1  0
  3 33  1  0
  9 34  1  0
 10 35  1  0
 12 36  1  0
 13 37  1  0
 13 38  1  0
 14 39  1  0
 14 40  1  0
 15 41  1  0
 16 42  1  0
 16 43  1  0
 17 44  1  0
 17 45  1  0
 18 46  1  0
 18 47  1  0
 19 48  1  0
 19 49  1  0
 20 50  1  0
 20 51  1  0
 24 52  1  0
 25 53  1  0
 26 54  1  0
 27 55  1  0
 28 56  1  0
 29 57  1  0
 30 58  1  0
M  CHG  2  15   1  18   1
M  END
>  <meeko>  (12) 
{"free_energy": -11.375, "intermolecular_energy": -10.442, "internal_energy": -1.77}

$$$$

     RDKit          3D

 58 62  0  0  0  0  0  0  0  0999 V2000
   32.3150   39.4680   83.7030 C   0  0  0  0  0  0  0  0  0  0  0  0
   31.2120   40.2930   83.2610 C   0  0  0  0  0  0  0  0  0  0  0  0
   29.8860   39.7450   83.1930 C   0  0  0  0  0  0  0  0  0  0  0  0
   29.6640   38.3740   83.5590 C   0  0  0  0  0  0  0  0  0  0  0  0
   28.2660   37.8390   83.4890 C   0  0  0  0  0  0  0  0  0  0  0  0
   27.9360   36.7980   82.6430 O   0  0  0  0  0  0  0  0  0  0  0  0
   26.6100   36.5770   82.8280 C   0  0  0  0  0  0  0  0  0  0  0  0
   25.8250   35.6220   82.1950 N   0  0  0  0  0  0  0  0  0  0  0  0
   24.5000   35.4810   82.4520 C   0  0  0  0  0  0  0  0  0  0  0  0
   23.8650   36.3060   83.4160 C   0  0  0  0  0  0  0  0  0  0  0  0
   24.6330   37.3130   84.1060 C   0  0  0  0  0  0  0  0  0  0  0  0
   24.0540   38.1360   85.0500 N   0  0  0  0  0  0  0  0  0  0  0  0
   23.2870   39.3270   84.7050 C   0  0  0  0  0  0  0  0  0  0  0  0
   22.2430   39.6860   85.7670 C   0  0  0  0  0  0  0  0  0  0  0  0
   21.0410   38.8160   85.7900 N   0  0  0  0  0  4  0  0  0  0  0  0
   21.3330   37.7450   86.7810 C   0  0  0  0  0  0  0  0  0  0  0  0
   20.1420   36.7730   86.8790 C   0  0  0  0  0  0  0  0  0  0  0  0
   19.8560   36.2130   85.5250 N   0  0  0  0  0  4  0  0  0  0  0  0
   19.5670   37.2900   84.5270 C   0  0  0  0  0  0  0  0  0  0  0  0
   20.7940   38.2240   84.4450 C   0  0  0  0  0  0  0  0  0  0  0  0
   26.0590   37.4480   83.7980 C   0  0  0  0  0  0  0  0  0  0  0  0
   27.0530   38.2980   84.2740 C   0  0  0  0  0  0  0  0  0  0  0  0
   26.8880   39.3640   85.2930 C   0  0  0  0  0  0  0  0  0  0  0  0
   26.9240   39.0420   86.6940 C   0  0  0  0  0  0  0  0  0  0  0  0
   26.7460   40.0820   87.6620 C   0  0  0  0  0  0  0  0  0  0  0  0
   26.5310   41.4410   87.2220 C   0  0  0  0  0  0  0  0  0  0  0  0
   26.4970   41.7700   85.8150 C   0  0  0  0  0  0  0  0  0  0  0  0
   26.6740   40.7270   84.8490 C   0  0  0  0  0  0  0  0  0  0  0  0
   30.7890   37.5640   83.9940 C   0  0  0  0  0  0  0  0  0  0  0  0
   32.1040   38.1000   84.0670 C   0  0  0  0  0  0  0  0  0  0  0  0
   33.3265   39.8965   83.7599 H   0  0  0  0  0  0  0  0  0  0  0  0
   31.3889   41.3408   82.9768 H   0  0  0  0  0  0  0  0  0  0  0  0
   29.0449   40.3721   82.8623 H   0  0  0  0  0  0  0  0  0  0  0  0
   23.9152   34.7231   81.9101 H   0  0  0  0  0  0  0  0  0  0  0  0
   22.7947   36.1785   83.6355 H   0  0  0  0  0  0  0  0  0  0  0  0
   24.8140   38.4680   85.6080 H   0  0  0  0  0  0  0  0  0  0  0  0
   23.9814   40.1729   84.5941 H   0  0  0  0  0  0  0  0  0  0  0  0
   22.7496   39.1164   83.7686 H   0  0  0  0  0  0  0  0  0  0  0  0
   22.7260   39.6254   86.7534 H   0  0  0  0  0  0  0  0  0  0  0  0
   21.8850   40.6951   85.5147 H   0  0  0  0  0  0  0  0  0  0  0  0
   20.2220   39.3340   86.0360 H   0  0  0  0  0  0  0  0  0  0  0  0
   22.2291   37.1912   86.4643 H   0  0  0  0  0  0  0  0  0  0  0  0
   21.5042   38.2039   87.7659 H   0  0  0  0  0  0  0  0  0  0  0  0
   20.3902   35.9548   87.5711 H   0  0  0  0  0  0  0  0  0  0  0  0
   19.2568   37.3080   87.2534 H   0  0  0  0  0  0  0  0  0  0  0  0
   20.6550   35.6960   85.2170 H   0  0  0  0  0  0  0  0  0  0  0  0
   19.0600   35.6110   85.5880 H   0  0  0  0  0  0  0  0  0  0  0  0
   19.3760   36.8409   83.5412 H   0  0  0  0  0  0  0  0  0  0  0  0
   18.6787   37.8609   84.8351 H   0  0  0  0  0  0  0  0  0  0  0  0
   21.6758   37.6481   84.1275 H   0  0  0  0  0  0  0  0  0  0  0  0
   20.6048   39.0245   83.7146 H   0  0  0  0  0  0  0  0  0  0  0  0
   27.0871   38.0041   87.0198 H   0  0  0  0  0  0  0  0  0  0  0  0
   26.7729   39.8470   88.7363 H   0  0  0  0  0  0  0  0  0  0  0  0
   26.3912   42.2368   87.9684 H   0  0  0  0  0  0  0  0  0  0  0  0
   26.3372   42.8086   85.4899 H   0  0  0  0  0  0  0  0  0  0  0  0
   26.6476   40.9597   83.7742 H   0  0  0  0  0  0  0  0  0  0  0  0
   30.6198   36.5135   84.2729 H   0  0  0  0  0  0  0  0  0  0  0  0
   32.9454   37.4735   84.3978 H   0  0  0  0  0  0  0  0  0  0  0  0
  1  2  2  0
  2  3  1  0
  3  4  2  0
  4  5  1  0
  5  6  1  0
  6  7  1  0
  7  8  2  0
  8  9  1  0
  9 10  2  0
 10 11  1  0
 11 12  1  0
 12 13  1  0
 13 14  1  0
 14 15  1  0
 15 16  1  0
 16 17  1  0
 17 18  1  0
 18 19  1  0
 19 20  1  0
 11 21  2  0
 21 22  1  0
 22 23  1  0
 23 24  2  0
 24 25  1  0
 25 26  2  0
 26 27  1  0
 27 28  2  0
  4 29  1  0
 29 30  2  0
 30  1  1  0
 22  5  2  0
 28 23  1  0
 21  7  1  0
 20 15  1  0
  1 31  1  0
  2 32  1  0
  3 33  1  0
  9 34  1  0
 10 35  1  0
 12 36  1  0
 13 37  1  0
 13 38  1  0
 14 39  1  0
 14 40  1  0
 15 41  1  0
 16 42  1  0
 16 43  1  0
 17 44  1  0
 17 45  1  0
 18 46  1  0
 18 47  1  0
 19 48  1  0
 19 49  1  0
 20 50  1  0
 20 51  1  0
 24 52  1  0
 25 53  1  0
 26 54  1  0
 27 55  1  0
 28 56  1  0
 29 57  1  0
 30 58  1  0
M  CHG  2  15   1  18   1
M  END
>  <meeko>  (13) 
{"free_energy": -11.287, "intermolecular_energy": -10.722, "internal_energy": -1.372}

$$$$

     RDKit          3D

 58 62  0  0  0  0  0  0  0  0999 V2000
   31.3720   37.1800   82.8010 C   0  0  0  0  0  0  0  0  0  0  0  0
   30.6800   36.0830   82.1600 C   0  0  0  0  0  0  0  0  0  0  0  0
   29.2540   35.9580   82.2880 C   0  0  0  0  0  0  0  0  0  0  0  0
   28.5230   36.9220   83.0630 C   0  0  0  0  0  0  0  0  0  0  0  0
   27.0360   36.7700   83.1650 C   0  0  0  0  0  0  0  0  0  0  0  0
   26.3660   35.7860   82.4650 O   0  0  0  0  0  0  0  0  0  0  0  0
   25.0540   35.9360   82.7800 C   0  0  0  0  0  0  0  0  0  0  0  0
   23.9900   35.1730   82.3190 N   0  0  0  0  0  0  0  0  0  0  0  0
   22.7080   35.4060   82.6960 C   0  0  0  0  0  0  0  0  0  0  0  0
   22.4080   36.4460   83.6140 C   0  0  0  0  0  0  0  0  0  0  0  0
   23.4750   37.2700   84.1270 C   0  0  0  0  0  0  0  0  0  0  0  0
   23.2280   38.2920   85.0200 N   0  0  0  0  0  0  0  0  0  0  0  0
   22.6150   39.5560   84.6340 C   0  0  0  0  0  0  0  0  0  0  0  0
   21.3980   39.9120   85.4920 C   0  0  0  0  0  0  0  0  0  0  0  0
   21.6460   40.9220   86.5520 N   0  0  0  0  0  4  0  0  0  0  0  0
   22.7960   41.7380   86.0750 C   0  0  0  0  0  0  0  0  0  0  0  0
   23.1440   42.8210   87.1130 C   0  0  0  0  0  0  0  0  0  0  0  0
   23.4330   42.1680   88.4240 N   0  0  0  0  0  4  0  0  0  0  0  0
   22.2780   41.3430   88.9010 C   0  0  0  0  0  0  0  0  0  0  0  0
   21.9810   40.2590   87.8430 C   0  0  0  0  0  0  0  0  0  0  0  0
   24.8480   36.9990   83.6910 C   0  0  0  0  0  0  0  0  0  0  0  0
   26.0700   37.5950   83.9910 C   0  0  0  0  0  0  0  0  0  0  0  0
   26.2900   38.7470   84.9000 C   0  0  0  0  0  0  0  0  0  0  0  0
   26.5330   38.5330   86.3000 C   0  0  0  0  0  0  0  0  0  0  0  0
   26.7260   39.6590   87.1640 C   0  0  0  0  0  0  0  0  0  0  0  0
   26.6730   40.9960   86.6200 C   0  0  0  0  0  0  0  0  0  0  0  0
   26.4320   41.2160   85.2120 C   0  0  0  0  0  0  0  0  0  0  0  0
   26.2380   40.0880   84.3510 C   0  0  0  0  0  0  0  0  0  0  0  0
   29.2430   38.0120   83.7030 C   0  0  0  0  0  0  0  0  0  0  0  0
   30.6530   38.1430   83.5780 C   0  0  0  0  0  0  0  0  0  0  0  0
   32.4623   37.2749   82.6900 H   0  0  0  0  0  0  0  0  0  0  0  0
   31.2459   35.3438   81.5740 H   0  0  0  0  0  0  0  0  0  0  0  0
   28.7251   35.1288   81.7953 H   0  0  0  0  0  0  0  0  0  0  0  0
   21.8965   34.7855   82.2880 H   0  0  0  0  0  0  0  0  0  0  0  0
   21.3698   36.6223   83.9318 H   0  0  0  0  0  0  0  0  0  0  0  0
   24.1240   38.5380   85.3900 H   0  0  0  0  0  0  0  0  0  0  0  0
   23.3635   40.3555   84.7370 H   0  0  0  0  0  0  0  0  0  0  0  0
   22.2687   39.4523   83.5951 H   0  0  0  0  0  0  0  0  0  0  0  0
   20.6146   40.3028   84.8260 H   0  0  0  0  0  0  0  0  0  0  0  0
   21.1103   38.9868   86.0129 H   0  0  0  0  0  0  0  0  0  0  0  0
   20.8350   41.4840   86.7140 H   0  0  0  0  0  0  0  0  0  0  0  0
   23.6681   41.0846   85.9248 H   0  0  0  0  0  0  0  0  0  0  0  0
   22.5237   42.2234   85.1262 H   0  0  0  0  0  0  0  0  0  0  0  0
   24.0293   43.3813   86.7777 H   0  0  0  0  0  0  0  0  0  0  0  0
   22.2966   43.5136   87.2234 H   0  0  0  0  0  0  0  0  0  0  0  0
   24.2290   41.5720   88.3160 H   0  0  0  0  0  0  0  0  0  0  0  0
   23.6220   42.8780   89.1020 H   0  0  0  0  0  0  0  0  0  0  0  0
   22.5329   40.8665   89.8591 H   0  0  0  0  0  0  0  0  0  0  0  0
   21.3935   41.9807   89.0461 H   0  0  0  0  0  0  0  0  0  0  0  0
   22.8665   39.6200   87.7108 H   0  0  0  0  0  0  0  0  0  0  0  0
   21.1349   39.6386   88.1733 H   0  0  0  0  0  0  0  0  0  0  0  0
   26.5706   37.5112   86.7055 H   0  0  0  0  0  0  0  0  0  0  0  0
   26.9137   39.5062   88.2370 H   0  0  0  0  0  0  0  0  0  0  0  0
   26.8181   41.8589   87.2867 H   0  0  0  0  0  0  0  0  0  0  0  0
   26.3980   42.2379   84.8064 H   0  0  0  0  0  0  0  0  0  0  0  0
   26.0503   40.2384   83.2776 H   0  0  0  0  0  0  0  0  0  0  0  0
   28.6844   38.7508   84.2964 H   0  0  0  0  0  0  0  0  0  0  0  0
   31.1830   38.9715   84.0707 H   0  0  0  0  0  0  0  0  0  0  0  0
  1  2  2  0
  2  3  1  0
  3  4  2  0
  4  5  1  0
  5  6  1  0
  6  7  1  0
  7  8  2  0
  8  9  1  0
  9 10  2  0
 10 11  1  0
 11 12  1  0
 12 13  1  0
 13 14  1  0
 14 15  1  0
 15 16  1  0
 16 17  1  0
 17 18  1  0
 18 19  1  0
 19 20  1  0
 11 21  2  0
 21 22  1  0
 22 23  1  0
 23 24  2  0
 24 25  1  0
 25 26  2  0
 26 27  1  0
 27 28  2  0
  4 29  1  0
 29 30  2  0
 30  1  1  0
 22  5  2  0
 28 23  1  0
 21  7  1  0
 20 15  1  0
  1 31  1  0
  2 32  1  0
  3 33  1  0
  9 34  1  0
 10 35  1  0
 12 36  1  0
 13 37  1  0
 13 38  1  0
 14 39  1  0
 14 40  1  0
 15 41  1  0
 16 42  1  0
 16 43  1  0
 17 44  1  0
 17 45  1  0
 18 46  1  0
 18 47  1  0
 19 48  1  0
 19 49  1  0
 20 50  1  0
 20 51  1  0
 24 52  1  0
 25 53  1  0
 26 54  1  0
 27 55  1  0
 28 56  1  0
 29 57  1  0
 30 58  1  0
M  CHG  2  15   1  18   1
M  END
>  <meeko>  (14) 
{"free_energy": -11.285, "intermolecular_energy": -10.477, "internal_energy": -1.615}

$$$$

     RDKit          3D

 58 62  0  0  0  0  0  0  0  0999 V2000
   19.5670   36.8720   85.7580 C   0  0  0  0  0  0  0  0  0  0  0  0
   20.6570   36.8170   86.7080 C   0  0  0  0  0  0  0  0  0  0  0  0
   22.0160   36.8780   86.2470 C   0  0  0  0  0  0  0  0  0  0  0  0
   22.2850   36.9850   84.8400 C   0  0  0  0  0  0  0  0  0  0  0  0
   23.7140   37.0600   84.3950 C   0  0  0  0  0  0  0  0  0  0  0  0
   24.2930   36.0420   83.6630 O   0  0  0  0  0  0  0  0  0  0  0  0
   25.5750   36.4290   83.4390 C   0  0  0  0  0  0  0  0  0  0  0  0
   26.5500   35.7300   82.7410 N   0  0  0  0  0  0  0  0  0  0  0  0
   27.8090   36.2070   82.5730 C   0  0  0  0  0  0  0  0  0  0  0  0
   28.1710   37.4760   83.0960 C   0  0  0  0  0  0  0  0  0  0  0  0
   27.1970   38.2460   83.8290 C   0  0  0  0  0  0  0  0  0  0  0  0
   27.5080   39.4830   84.3540 N   0  0  0  0  0  0  0  0  0  0  0  0
   28.6210   40.2940   83.8780 C   0  0  0  0  0  0  0  0  0  0  0  0
   28.4600   41.7790   84.2150 C   0  0  0  0  0  0  0  0  0  0  0  0
   28.2270   42.0790   85.6500 N   0  0  0  0  0  4  0  0  0  0  0  0
   27.5840   43.4200   85.6880 C   0  0  0  0  0  0  0  0  0  0  0  0
   27.3030   43.8340   87.1440 C   0  0  0  0  0  0  0  0  0  0  0  0
   28.5830   43.8110   87.9130 N   0  0  0  0  0  4  0  0  0  0  0  0
   29.2320   42.4630   87.8730 C   0  0  0  0  0  0  0  0  0  0  0  0
   29.5150   42.1010   86.3990 C   0  0  0  0  0  0  0  0  0  0  0  0
   25.8490   37.6980   84.0020 C   0  0  0  0  0  0  0  0  0  0  0  0
   24.7090   38.1780   84.6400 C   0  0  0  0  0  0  0  0  0  0  0  0
   24.5780   39.4680   85.3620 C   0  0  0  0  0  0  0  0  0  0  0  0
   24.8730   39.5480   86.7660 C   0  0  0  0  0  0  0  0  0  0  0  0
   24.7250   40.7990   87.4490 C   0  0  0  0  0  0  0  0  0  0  0  0
   24.2800   41.9640   86.7200 C   0  0  0  0  0  0  0  0  0  0  0  0
   23.9860   41.8890   85.3070 C   0  0  0  0  0  0  0  0  0  0  0  0
   24.1340   40.6360   84.6280 C   0  0  0  0  0  0  0  0  0  0  0  0
   21.1730   37.0340   83.9050 C   0  0  0  0  0  0  0  0  0  0  0  0
   19.8250   36.9770   84.3540 C   0  0  0  0  0  0  0  0  0  0  0  0
   18.5286   36.8327   86.1188 H   0  0  0  0  0  0  0  0  0  0  0  0
   20.4448   36.7284   87.7837 H   0  0  0  0  0  0  0  0  0  0  0  0
   22.8464   36.8430   86.9676 H   0  0  0  0  0  0  0  0  0  0  0  0
   28.5532   35.6071   82.0286 H   0  0  0  0  0  0  0  0  0  0  0  0
   29.1870   37.8690   82.9432 H   0  0  0  0  0  0  0  0  0  0  0  0
   27.7010   39.3160   85.3200 H   0  0  0  0  0  0  0  0  0  0  0  0
   29.5477   39.9266   84.3430 H   0  0  0  0  0  0  0  0  0  0  0  0
   28.6510   40.2045   82.7821 H   0  0  0  0  0  0  0  0  0  0  0  0
   29.3769   42.3003   83.9027 H   0  0  0  0  0  0  0  0  0  0  0  0
   27.5593   42.1175   83.6819 H   0  0  0  0  0  0  0  0  0  0  0  0
   27.6530   41.3810   86.0790 H   0  0  0  0  0  0  0  0  0  0  0  0
   28.2547   44.1578   85.2235 H   0  0  0  0  0  0  0  0  0  0  0  0
   26.6329   43.3777   85.1370 H   0  0  0  0  0  0  0  0  0  0  0  0
   26.8796   44.8491   87.1634 H   0  0  0  0  0  0  0  0  0  0  0  0
   26.5853   43.1341   87.5969 H   0  0  0  0  0  0  0  0  0  0  0  0
   29.2090   44.4810   87.5150 H   0  0  0  0  0  0  0  0  0  0  0  0
   28.3890   44.0450   88.8660 H   0  0  0  0  0  0  0  0  0  0  0  0
   30.1761   42.4885   88.4370 H   0  0  0  0  0  0  0  0  0  0  0  0
   28.5690   41.7111   88.3259 H   0  0  0  0  0  0  0  0  0  0  0  0
   30.1861   42.8521   85.9569 H   0  0  0  0  0  0  0  0  0  0  0  0
   29.9943   41.1124   86.3441 H   0  0  0  0  0  0  0  0  0  0  0  0
   25.2101   38.6550   87.3128 H   0  0  0  0  0  0  0  0  0  0  0  0
   24.9492   40.8718   88.5234 H   0  0  0  0  0  0  0  0  0  0  0  0
   24.1632   42.9219   87.2479 H   0  0  0  0  0  0  0  0  0  0  0  0
   23.6527   42.7829   84.7595 H   0  0  0  0  0  0  0  0  0  0  0  0
   23.9114   40.5609   83.5534 H   0  0  0  0  0  0  0  0  0  0  0  0
   21.3786   37.1169   82.8276 H   0  0  0  0  0  0  0  0  0  0  0  0
   18.9941   37.0130   83.6341 H   0  0  0  0  0  0  0  0  0  0  0  0
  1  2  2  0
  2  3  1  0
  3  4  2  0
  4  5  1  0
  5  6  1  0
  6  7  1  0
  7  8  2  0
  8  9  1  0
  9 10  2  0
 10 11  1  0
 11 12  1  0
 12 13  1  0
 13 14  1  0
 14 15  1  0
 15 16  1  0
 16 17  1  0
 17 18  1  0
 18 19  1  0
 19 20  1  0
 11 21  2  0
 21 22  1  0
 22 23  1  0
 23 24  2  0
 24 25  1  0
 25 26  2  0
 26 27  1  0
 27 28  2  0
  4 29  1  0
 29 30  2  0
 30  1  1  0
 22  5  2  0
 28 23  1  0
 21  7  1  0
 20 15  1  0
  1 31  1  0
  2 32  1  0
  3 33  1  0
  9 34  1  0
 10 35  1  0
 12 36  1  0
 13 37  1  0
 13 38  1  0
 14 39  1  0
 14 40  1  0
 15 41  1  0
 16 42  1  0
 16 43  1  0
 17 44  1  0
 17 45  1  0
 18 46  1  0
 18 47  1  0
 19 48  1  0
 19 49  1  0
 20 50  1  0
 20 51  1  0
 24 52  1  0
 25 53  1  0
 26 54  1  0
 27 55  1  0
 28 56  1  0
 29 57  1  0
 30 58  1  0
M  CHG  2  15   1  18   1
M  END
>  <meeko>  (15) 
{"free_energy": -11.273, "intermolecular_energy": -10.427, "internal_energy": -1.648}

$$$$

     RDKit          3D

 58 62  0  0  0  0  0  0  0  0999 V2000
   31.3290   37.2700   82.8250 C   0  0  0  0  0  0  0  0  0  0  0  0
   30.5260   38.2020   83.5870 C   0  0  0  0  0  0  0  0  0  0  0  0
   29.1030   38.0230   83.6730 C   0  0  0  0  0  0  0  0  0  0  0  0
   28.4830   36.9200   82.9920 C   0  0  0  0  0  0  0  0  0  0  0  0
   26.9990   36.7550   83.1140 C   0  0  0  0  0  0  0  0  0  0  0  0
   26.3240   35.7820   82.4040 O   0  0  0  0  0  0  0  0  0  0  0  0
   25.0160   35.9170   82.7420 C   0  0  0  0  0  0  0  0  0  0  0  0
   23.9500   35.1560   82.2820 N   0  0  0  0  0  0  0  0  0  0  0  0
   22.6720   35.3730   82.6850 C   0  0  0  0  0  0  0  0  0  0  0  0
   22.3810   36.3920   83.6280 C   0  0  0  0  0  0  0  0  0  0  0  0
   23.4510   37.2120   84.1420 C   0  0  0  0  0  0  0  0  0  0  0  0
   23.2110   38.2130   85.0600 N   0  0  0  0  0  0  0  0  0  0  0  0
   22.4970   39.4400   84.7320 C   0  0  0  0  0  0  0  0  0  0  0  0
   21.5390   39.8830   85.8410 C   0  0  0  0  0  0  0  0  0  0  0  0
   22.1250   40.7960   86.8550 N   0  0  0  0  0  4  0  0  0  0  0  0
   20.9820   41.2860   87.6720 C   0  0  0  0  0  0  0  0  0  0  0  0
   21.4830   42.2550   88.7590 C   0  0  0  0  0  0  0  0  0  0  0  0
   22.2200   43.3790   88.1090 N   0  0  0  0  0  4  0  0  0  0  0  0
   23.3680   42.8870   87.2830 C   0  0  0  0  0  0  0  0  0  0  0  0
   22.8170   41.9390   86.1950 C   0  0  0  0  0  0  0  0  0  0  0  0
   24.8180   36.9590   83.6790 C   0  0  0  0  0  0  0  0  0  0  0  0
   26.0410   37.5560   83.9730 C   0  0  0  0  0  0  0  0  0  0  0  0
   26.2680   38.6910   84.9020 C   0  0  0  0  0  0  0  0  0  0  0  0
   26.2120   40.0450   84.4220 C   0  0  0  0  0  0  0  0  0  0  0  0
   26.4510   41.1260   85.3300 C   0  0  0  0  0  0  0  0  0  0  0  0
   26.7460   40.8460   86.7160 C   0  0  0  0  0  0  0  0  0  0  0  0
   26.7990   39.4860   87.2040 C   0  0  0  0  0  0  0  0  0  0  0  0
   26.5610   38.4070   86.2920 C   0  0  0  0  0  0  0  0  0  0  0  0
   29.3110   36.0010   82.2280 C   0  0  0  0  0  0  0  0  0  0  0  0
   30.7200   36.1700   82.1410 C   0  0  0  0  0  0  0  0  0  0  0  0
   32.4189   37.4084   82.7709 H   0  0  0  0  0  0  0  0  0  0  0  0
   31.0055   39.0482   84.1008 H   0  0  0  0  0  0  0  0  0  0  0  0
   28.4915   38.7265   84.2570 H   0  0  0  0  0  0  0  0  0  0  0  0
   21.8577   34.7554   82.2782 H   0  0  0  0  0  0  0  0  0  0  0  0
   21.3468   36.5558   83.9650 H   0  0  0  0  0  0  0  0  0  0  0  0
   24.1160   38.5100   85.3650 H   0  0  0  0  0  0  0  0  0  0  0  0
   23.2326   40.2401   84.5625 H   0  0  0  0  0  0  0  0  0  0  0  0
   21.8946   39.2426   83.8330 H   0  0  0  0  0  0  0  0  0  0  0  0
   20.6885   40.3980   85.3704 H   0  0  0  0  0  0  0  0  0  0  0  0
   21.2542   38.9685   86.3818 H   0  0  0  0  0  0  0  0  0  0  0  0
   22.8070   40.3270   87.4150 H   0  0  0  0  0  0  0  0  0  0  0  0
   20.2671   41.8093   87.0200 H   0  0  0  0  0  0  0  0  0  0  0  0
   20.4912   40.4278   88.1543 H   0  0  0  0  0  0  0  0  0  0  0  0
   20.6255   42.6531   89.3213 H   0  0  0  0  0  0  0  0  0  0  0  0
   22.1533   41.7226   89.4499 H   0  0  0  0  0  0  0  0  0  0  0  0
   21.5880   43.8760   87.5150 H   0  0  0  0  0  0  0  0  0  0  0  0
   22.5740   43.9850   88.8210 H   0  0  0  0  0  0  0  0  0  0  0  0
   23.8769   43.7395   86.8095 H   0  0  0  0  0  0  0  0  0  0  0  0
   24.0888   42.3526   87.9192 H   0  0  0  0  0  0  0  0  0  0  0  0
   22.1048   42.4833   85.5574 H   0  0  0  0  0  0  0  0  0  0  0  0
   23.6439   41.5650   85.5734 H   0  0  0  0  0  0  0  0  0  0  0  0
   25.9872   40.2491   83.3647 H   0  0  0  0  0  0  0  0  0  0  0  0
   26.4101   42.1658   84.9734 H   0  0  0  0  0  0  0  0  0  0  0  0
   26.9329   41.6789   87.4098 H   0  0  0  0  0  0  0  0  0  0  0  0
   27.0193   39.2823   88.2623 H   0  0  0  0  0  0  0  0  0  0  0  0
   26.6006   37.3663   86.6461 H   0  0  0  0  0  0  0  0  0  0  0  0
   28.8371   35.1567   81.7060 H   0  0  0  0  0  0  0  0  0  0  0  0
   31.3322   35.4667   81.5574 H   0  0  0  0  0  0  0  0  0  0  0  0
  1  2  2  0
  2  3  1  0
  3  4  2  0
  4  5  1  0
  5  6  1  0
  6  7  1  0
  7  8  2  0
  8  9  1  0
  9 10  2  0
 10 11  1  0
 11 12  1  0
 12 13  1  0
 13 14  1  0
 14 15  1  0
 15 16  1  0
 16 17  1  0
 17 18  1  0
 18 19  1  0
 19 20  1  0
 11 21  2  0
 21 22  1  0
 22 23  1  0
 23 24  2  0
 24 25  1  0
 25 26  2  0
 26 27  1  0
 27 28  2  0
  4 29  1  0
 29 30  2  0
 30  1  1  0
 22  5  2  0
 28 23  1  0
 21  7  1  0
 20 15  1  0
  1 31  1  0
  2 32  1  0
  3 33  1  0
  9 34  1  0
 10 35  1  0
 12 36  1  0
 13 37  1  0
 13 38  1  0
 14 39  1  0
 14 40  1  0
 15 41  1  0
 16 42  1  0
 16 43  1  0
 17 44  1  0
 17 45  1  0
 18 46  1  0
 18 47  1  0
 19 48  1  0
 19 49  1  0
 20 50  1  0
 20 51  1  0
 24 52  1  0
 25 53  1  0
 26 54  1  0
 27 55  1  0
 28 56  1  0
 29 57  1  0
 30 58  1  0
M  CHG  2  15   1  18   1
M  END
>  <meeko>  (16) 
{"free_energy": -11.223, "intermolecular_energy": -10.618, "internal_energy": -1.39}

$$$$

     RDKit          3D

 58 62  0  0  0  0  0  0  0  0999 V2000
   32.0220   38.7620   83.9800 C   0  0  0  0  0  0  0  0  0  0  0  0
   30.9370   39.4780   84.6160 C   0  0  0  0  0  0  0  0  0  0  0  0
   29.5850   39.0190   84.4620 C   0  0  0  0  0  0  0  0  0  0  0  0
   29.3160   37.8530   83.6670 C   0  0  0  0  0  0  0  0  0  0  0  0
   27.8950   37.3950   83.5380 C   0  0  0  0  0  0  0  0  0  0  0  0
   27.5480   36.3610   82.6910 O   0  0  0  0  0  0  0  0  0  0  0  0
   26.2040   36.2150   82.8160 C   0  0  0  0  0  0  0  0  0  0  0  0
   25.3980   35.2950   82.1590 N   0  0  0  0  0  0  0  0  0  0  0  0
   24.0570   35.2310   82.3550 C   0  0  0  0  0  0  0  0  0  0  0  0
   23.4240   36.1050   83.2770 C   0  0  0  0  0  0  0  0  0  0  0  0
   24.2140   37.0790   83.9880 C   0  0  0  0  0  0  0  0  0  0  0  0
   23.6380   37.9480   84.8920 N   0  0  0  0  0  0  0  0  0  0  0  0
   22.1980   38.1320   85.0140 C   0  0  0  0  0  0  0  0  0  0  0  0
   21.6690   37.7690   86.4040 C   0  0  0  0  0  0  0  0  0  0  0  0
   21.2000   38.9170   87.2210 N   0  0  0  0  0  4  0  0  0  0  0  0
   20.1310   39.5750   86.4220 C   0  0  0  0  0  0  0  0  0  0  0  0
   19.5750   40.7950   87.1810 C   0  0  0  0  0  0  0  0  0  0  0  0
   20.6960   41.7330   87.4860 N   0  0  0  0  0  4  0  0  0  0  0  0
   21.7740   41.0700   88.2860 C   0  0  0  0  0  0  0  0  0  0  0  0
   22.3160   39.8710   87.4770 C   0  0  0  0  0  0  0  0  0  0  0  0
   25.6580   37.1300   83.7470 C   0  0  0  0  0  0  0  0  0  0  0  0
   26.6750   37.9320   84.2580 C   0  0  0  0  0  0  0  0  0  0  0  0
   26.5220   39.0220   85.2540 C   0  0  0  0  0  0  0  0  0  0  0  0
   26.6870   38.7530   86.6560 C   0  0  0  0  0  0  0  0  0  0  0  0
   26.5190   39.8140   87.6030 C   0  0  0  0  0  0  0  0  0  0  0  0
   26.1840   41.1410   87.1410 C   0  0  0  0  0  0  0  0  0  0  0  0
   26.0200   41.4160   85.7310 C   0  0  0  0  0  0  0  0  0  0  0  0
   26.1880   40.3520   84.7870 C   0  0  0  0  0  0  0  0  0  0  0  0
   30.4230   37.1550   83.0330 C   0  0  0  0  0  0  0  0  0  0  0  0
   31.7640   37.6010   83.1840 C   0  0  0  0  0  0  0  0  0  0  0  0
   33.0561   39.1139   84.1098 H   0  0  0  0  0  0  0  0  0  0  0  0
   31.1480   40.3743   85.2177 H   0  0  0  0  0  0  0  0  0  0  0  0
   28.7595   39.5575   84.9503 H   0  0  0  0  0  0  0  0  0  0  0  0
   23.4570   34.4977   81.7963 H   0  0  0  0  0  0  0  0  0  0  0  0
   22.3393   36.0397   83.4477 H   0  0  0  0  0  0  0  0  0  0  0  0
   23.9980   38.8500   84.6540 H   0  0  0  0  0  0  0  0  0  0  0  0
   21.9601   39.1868   84.8119 H   0  0  0  0  0  0  0  0  0  0  0  0
   21.7157   37.4588   84.2900 H   0  0  0  0  0  0  0  0  0  0  0  0
   20.8254   37.0747   86.2766 H   0  0  0  0  0  0  0  0  0  0  0  0
   22.5184   37.3324   86.9498 H   0  0  0  0  0  0  0  0  0  0  0  0
   20.8630   38.6160   88.1120 H   0  0  0  0  0  0  0  0  0  0  0  0
   20.5479   39.9051   85.4591 H   0  0  0  0  0  0  0  0  0  0  0  0
   19.3161   38.8561   86.2513 H   0  0  0  0  0  0  0  0  0  0  0  0
   18.8260   41.3062   86.5584 H   0  0  0  0  0  0  0  0  0  0  0  0
   19.1027   40.4649   88.1180 H   0  0  0  0  0  0  0  0  0  0  0  0
   21.0880   42.0550   86.6240 H   0  0  0  0  0  0  0  0  0  0  0  0
   20.3360   42.5040   88.0100 H   0  0  0  0  0  0  0  0  0  0  0  0
   22.5868   41.7857   88.4787 H   0  0  0  0  0  0  0  0  0  0  0  0
   21.3706   40.7240   89.2491 H   0  0  0  0  0  0  0  0  0  0  0  0
   22.7250   40.2262   86.5196 H   0  0  0  0  0  0  0  0  0  0  0  0
   23.1130   39.3684   88.0446 H   0  0  0  0  0  0  0  0  0  0  0  0
   26.9406   37.7392   86.9993 H   0  0  0  0  0  0  0  0  0  0  0  0
   26.6446   39.6192   88.6783 H   0  0  0  0  0  0  0  0  0  0  0  0
   26.0519   41.9529   87.8714 H   0  0  0  0  0  0  0  0  0  0  0  0
   25.7692   42.4304   85.3874 H   0  0  0  0  0  0  0  0  0  0  0  0
   26.0638   40.5441   83.7111 H   0  0  0  0  0  0  0  0  0  0  0  0
   30.2181   36.2626   82.4234 H   0  0  0  0  0  0  0  0  0  0  0  0
   32.5903   37.0625   82.6969 H   0  0  0  0  0  0  0  0  0  0  0  0
  1  2  2  0
  2  3  1  0
  3  4  2  0
  4  5  1  0
  5  6  1  0
  6  7  1  0
  7  8  2  0
  8  9  1  0
  9 10  2  0
 10 11  1  0
 11 12  1  0
 12 13  1  0
 13 14  1  0
 14 15  1  0
 15 16  1  0
 16 17  1  0
 17 18  1  0
 18 19  1  0
 19 20  1  0
 11 21  2  0
 21 22  1  0
 22 23  1  0
 23 24  2  0
 24 25  1  0
 25 26  2  0
 26 27  1  0
 27 28  2  0
  4 29  1  0
 29 30  2  0
 30  1  1  0
 22  5  2  0
 28 23  1  0
 21  7  1  0
 20 15  1  0
  1 31  1  0
  2 32  1  0
  3 33  1  0
  9 34  1  0
 10 35  1  0
 12 36  1  0
 13 37  1  0
 13 38  1  0
 14 39  1  0
 14 40  1  0
 15 41  1  0
 16 42  1  0
 16 43  1  0
 17 44  1  0
 17 45  1  0
 18 46  1  0
 18 47  1  0
 19 48  1  0
 19 49  1  0
 20 50  1  0
 20 51  1  0
 24 52  1  0
 25 53  1  0
 26 54  1  0
 27 55  1  0
 28 56  1  0
 29 57  1  0
 30 58  1  0
M  CHG  2  15   1  18   1
M  END
>  <meeko>  (17) 
{"free_energy": -11.222, "intermolecular_energy": -10.744, "internal_energy": -1.262}

$$$$

     RDKit          3D

 58 62  0  0  0  0  0  0  0  0999 V2000
   31.8870   36.1130   83.3110 C   0  0  0  0  0  0  0  0  0  0  0  0
   32.0960   37.2140   84.2250 C   0  0  0  0  0  0  0  0  0  0  0  0
   31.0730   38.2070   84.4020 C   0  0  0  0  0  0  0  0  0  0  0  0
   29.8470   38.1050   83.6590 C   0  0  0  0  0  0  0  0  0  0  0  0
   28.7960   39.1500   83.8770 C   0  0  0  0  0  0  0  0  0  0  0  0
   29.1340   40.4580   84.1660 O   0  0  0  0  0  0  0  0  0  0  0  0
   27.9570   41.1220   84.3060 C   0  0  0  0  0  0  0  0  0  0  0  0
   27.7860   42.4680   84.5980 N   0  0  0  0  0  0  0  0  0  0  0  0
   26.5600   43.0370   84.7170 C   0  0  0  0  0  0  0  0  0  0  0  0
   25.3870   42.2630   84.5180 C   0  0  0  0  0  0  0  0  0  0  0  0
   25.5060   40.8600   84.2100 C   0  0  0  0  0  0  0  0  0  0  0  0
   24.3920   40.0710   84.0090 N   0  0  0  0  0  0  0  0  0  0  0  0
   23.0320   40.5430   84.2340 C   0  0  0  0  0  0  0  0  0  0  0  0
   22.1260   39.4710   84.8450 C   0  0  0  0  0  0  0  0  0  0  0  0
   21.5460   39.8130   86.1690 N   0  0  0  0  0  4  0  0  0  0  0  0
   20.2660   40.5160   85.8830 C   0  0  0  0  0  0  0  0  0  0  0  0
   19.5800   40.9260   87.1990 C   0  0  0  0  0  0  0  0  0  0  0  0
   20.5150   41.7780   87.9930 N   0  0  0  0  0  4  0  0  0  0  0  0
   21.8050   41.0730   88.2770 C   0  0  0  0  0  0  0  0  0  0  0  0
   22.4660   40.7030   86.9320 C   0  0  0  0  0  0  0  0  0  0  0  0
   26.8450   40.2720   84.0980 C   0  0  0  0  0  0  0  0  0  0  0  0
   27.2910   38.9840   83.8210 C   0  0  0  0  0  0  0  0  0  0  0  0
   26.4430   37.7950   83.5520 C   0  0  0  0  0  0  0  0  0  0  0  0
   26.3690   37.2410   82.2280 C   0  0  0  0  0  0  0  0  0  0  0  0
   25.5330   36.1040   81.9850 C   0  0  0  0  0  0  0  0  0  0  0  0
   24.7720   35.5290   83.0700 C   0  0  0  0  0  0  0  0  0  0  0  0
   24.8460   36.0810   84.4030 C   0  0  0  0  0  0  0  0  0  0  0  0
   25.6830   37.2190   84.6430 C   0  0  0  0  0  0  0  0  0  0  0  0
   29.6640   36.9920   82.7420 C   0  0  0  0  0  0  0  0  0  0  0  0
   30.6700   36.0040   82.5640 C   0  0  0  0  0  0  0  0  0  0  0  0
   32.6710   35.3513   83.1882 H   0  0  0  0  0  0  0  0  0  0  0  0
   33.0394   37.2913   84.7854 H   0  0  0  0  0  0  0  0  0  0  0  0
   31.2272   39.0410   85.1025 H   0  0  0  0  0  0  0  0  0  0  0  0
   26.4746   44.1043   84.9692 H   0  0  0  0  0  0  0  0  0  0  0  0
   24.3945   42.7304   84.5982 H   0  0  0  0  0  0  0  0  0  0  0  0
   24.5060   39.2960   84.6300 H   0  0  0  0  0  0  0  0  0  0  0  0
   23.0674   41.4045   84.9171 H   0  0  0  0  0  0  0  0  0  0  0  0
   22.6097   40.8155   83.2555 H   0  0  0  0  0  0  0  0  0  0  0  0
   21.2959   39.2885   84.1467 H   0  0  0  0  0  0  0  0  0  0  0  0
   22.7636   38.5898   85.0094 H   0  0  0  0  0  0  0  0  0  0  0  0
   21.4030   38.9950   86.7250 H   0  0  0  0  0  0  0  0  0  0  0  0
   20.4713   41.4157   85.2844 H   0  0  0  0  0  0  0  0  0  0  0  0
   19.6008   39.8391   85.3268 H   0  0  0  0  0  0  0  0  0  0  0  0
   18.6643   41.4932   86.9759 H   0  0  0  0  0  0  0  0  0  0  0  0
   19.3177   40.0269   87.7758 H   0  0  0  0  0  0  0  0  0  0  0  0
   20.7120   42.6090   87.4720 H   0  0  0  0  0  0  0  0  0  0  0  0
   20.0780   42.0110   88.8620 H   0  0  0  0  0  0  0  0  0  0  0  0
   22.4719   41.7351   88.8487 H   0  0  0  0  0  0  0  0  0  0  0  0
   21.6164   40.1643   88.8674 H   0  0  0  0  0  0  0  0  0  0  0  0
   22.6598   41.6175   86.3522 H   0  0  0  0  0  0  0  0  0  0  0  0
   23.4183   40.1840   87.1158 H   0  0  0  0  0  0  0  0  0  0  0  0
   26.9502   37.6870   81.4074 H   0  0  0  0  0  0  0  0  0  0  0  0
   25.4705   35.6701   80.9761 H   0  0  0  0  0  0  0  0  0  0  0  0
   24.1272   34.6587   82.8785 H   0  0  0  0  0  0  0  0  0  0  0  0
   24.2668   35.6331   85.2239 H   0  0  0  0  0  0  0  0  0  0  0  0
   25.7483   37.6536   85.6514 H   0  0  0  0  0  0  0  0  0  0  0  0
   28.7259   36.9127   82.1731 H   0  0  0  0  0  0  0  0  0  0  0  0
   30.5164   35.1694   81.8641 H   0  0  0  0  0  0  0  0  0  0  0  0
  1  2  2  0
  2  3  1  0
  3  4  2  0
  4  5  1  0
  5  6  1  0
  6  7  1  0
  7  8  2  0
  8  9  1  0
  9 10  2  0
 10 11  1  0
 11 12  1  0
 12 13  1  0
 13 14  1  0
 14 15  1  0
 15 16  1  0
 16 17  1  0
 17 18  1  0
 18 19  1  0
 19 20  1  0
 11 21  2  0
 21 22  1  0
 22 23  1  0
 23 24  2  0
 24 25  1  0
 25 26  2  0
 26 27  1  0
 27 28  2  0
  4 29  1  0
 29 30  2  0
 30  1  1  0
 22  5  2  0
 28 23  1  0
 21  7  1  0
 20 15  1  0
  1 31  1  0
  2 32  1  0
  3 33  1  0
  9 34  1  0
 10 35  1  0
 12 36  1  0
 13 37  1  0
 13 38  1  0
 14 39  1  0
 14 40  1  0
 15 41  1  0
 16 42  1  0
 16 43  1  0
 17 44  1  0
 17 45  1  0
 18 46  1  0
 18 47  1  0
 19 48  1  0
 19 49  1  0
 20 50  1  0
 20 51  1  0
 24 52  1  0
 25 53  1  0
 26 54  1  0
 27 55  1  0
 28 56  1  0
 29 57  1  0
 30 58  1  0
M  CHG  2  15   1  18   1
M  END
>  <meeko>  (18) 
{"free_energy": -11.125, "intermolecular_energy": -10.806, "internal_energy": -1.069}

$$$$

     RDKit          3D

 58 62  0  0  0  0  0  0  0  0999 V2000
   31.8980   39.5050   83.7150 C   0  0  0  0  0  0  0  0  0  0  0  0
   30.7590   40.3740   83.5140 C   0  0  0  0  0  0  0  0  0  0  0  0
   29.4300   39.8300   83.5120 C   0  0  0  0  0  0  0  0  0  0  0  0
   29.2400   38.4180   83.7000 C   0  0  0  0  0  0  0  0  0  0  0  0
   27.8390   37.8860   83.7050 C   0  0  0  0  0  0  0  0  0  0  0  0
   27.4550   36.8670   82.8560 O   0  0  0  0  0  0  0  0  0  0  0  0
   26.1420   36.6410   83.1180 C   0  0  0  0  0  0  0  0  0  0  0  0
   25.3180   35.7030   82.5120 N   0  0  0  0  0  0  0  0  0  0  0  0
   24.0110   35.5560   82.8490 C   0  0  0  0  0  0  0  0  0  0  0  0
   23.4390   36.3580   83.8700 C   0  0  0  0  0  0  0  0  0  0  0  0
   24.2500   37.3480   84.5350 C   0  0  0  0  0  0  0  0  0  0  0  0
   23.7340   38.1480   85.5320 N   0  0  0  0  0  0  0  0  0  0  0  0
   22.3120   38.4430   85.6610 C   0  0  0  0  0  0  0  0  0  0  0  0
   22.0320   39.5970   86.6280 C   0  0  0  0  0  0  0  0  0  0  0  0
   22.6830   40.8850   86.2790 N   0  0  0  0  0  4  0  0  0  0  0  0
   22.3130   41.8340   87.3640 C   0  0  0  0  0  0  0  0  0  0  0  0
   22.9360   43.2170   87.0940 C   0  0  0  0  0  0  0  0  0  0  0  0
   22.4880   43.7020   85.7560 N   0  0  0  0  0  4  0  0  0  0  0  0
   22.8550   42.7450   84.6650 C   0  0  0  0  0  0  0  0  0  0  0  0
   22.1910   41.3840   84.9650 C   0  0  0  0  0  0  0  0  0  0  0  0
   25.6550   37.4890   84.1410 C   0  0  0  0  0  0  0  0  0  0  0  0
   26.6790   38.3260   84.5750 C   0  0  0  0  0  0  0  0  0  0  0  0
   26.5800   39.3670   85.6280 C   0  0  0  0  0  0  0  0  0  0  0  0
   26.7830   39.0250   87.0090 C   0  0  0  0  0  0  0  0  0  0  0  0
   26.6670   40.0400   88.0130 C   0  0  0  0  0  0  0  0  0  0  0  0
   26.3460   41.3950   87.6280 C   0  0  0  0  0  0  0  0  0  0  0  0
   26.1440   41.7440   86.2390 C   0  0  0  0  0  0  0  0  0  0  0  0
   26.2590   40.7260   85.2390 C   0  0  0  0  0  0  0  0  0  0  0  0
   30.4010   37.5650   83.8940 C   0  0  0  0  0  0  0  0  0  0  0  0
   31.7190   38.0970   83.9010 C   0  0  0  0  0  0  0  0  0  0  0  0
   32.9122   39.9307   83.7250 H   0  0  0  0  0  0  0  0  0  0  0  0
   30.9112   41.4528   83.3625 H   0  0  0  0  0  0  0  0  0  0  0  0
   28.5623   40.4904   83.3674 H   0  0  0  0  0  0  0  0  0  0  0  0
   23.3922   34.8110   82.3275 H   0  0  0  0  0  0  0  0  0  0  0  0
   22.3842   36.2256   84.1525 H   0  0  0  0  0  0  0  0  0  0  0  0
   24.1750   39.0360   85.4090 H   0  0  0  0  0  0  0  0  0  0  0  0
   21.9171   38.7109   84.6699 H   0  0  0  0  0  0  0  0  0  0  0  0
   21.8222   37.5449   86.0655 H   0  0  0  0  0  0  0  0  0  0  0  0
   20.9447   39.7616   86.6560 H   0  0  0  0  0  0  0  0  0  0  0  0
   22.4550   39.2934   87.5970 H   0  0  0  0  0  0  0  0  0  0  0  0
   23.6740   40.7810   86.2000 H   0  0  0  0  0  0  0  0  0  0  0  0
   21.2180   41.9302   87.4053 H   0  0  0  0  0  0  0  0  0  0  0  0
   22.6918   41.4498   88.3226 H   0  0  0  0  0  0  0  0  0  0  0  0
   22.6108   43.9253   87.8703 H   0  0  0  0  0  0  0  0  0  0  0  0
   24.0331   43.1388   87.1113 H   0  0  0  0  0  0  0  0  0  0  0  0
   21.4930   43.8060   85.7690 H   0  0  0  0  0  0  0  0  0  0  0  0
   22.9240   44.5830   85.5710 H   0  0  0  0  0  0  0  0  0  0  0  0
   22.4958   43.1283   83.6985 H   0  0  0  0  0  0  0  0  0  0  0  0
   23.9478   42.6292   84.6164 H   0  0  0  0  0  0  0  0  0  0  0  0
   21.0985   41.5067   85.0024 H   0  0  0  0  0  0  0  0  0  0  0  0
   22.4459   40.6632   84.1741 H   0  0  0  0  0  0  0  0  0  0  0  0
   27.0259   37.9905   87.2932 H   0  0  0  0  0  0  0  0  0  0  0  0
   26.8217   39.7889   89.0727 H   0  0  0  0  0  0  0  0  0  0  0  0
   26.2540   42.1716   88.4016 H   0  0  0  0  0  0  0  0  0  0  0  0
   25.9049   42.7793   85.9544 H   0  0  0  0  0  0  0  0  0  0  0  0
   26.1042   40.9743   84.1786 H   0  0  0  0  0  0  0  0  0  0  0  0
   30.2563   36.4842   84.0385 H   0  0  0  0  0  0  0  0  0  0  0  0
   32.5872   37.4376   84.0470 H   0  0  0  0  0  0  0  0  0  0  0  0
  1  2  2  0
  2  3  1  0
  3  4  2  0
  4  5  1  0
  5  6  1  0
  6  7  1  0
  7  8  2  0
  8  9  1  0
  9 10  2  0
 10 11  1  0
 11 12  1  0
 12 13  1  0
 13 14  1  0
 14 15  1  0
 15 16  1  0
 16 17  1  0
 17 18  1  0
 18 19  1  0
 19 20  1  0
 11 21  2  0
 21 22  1  0
 22 23  1  0
 23 24  2  0
 24 25  1  0
 25 26  2  0
 26 27  1  0
 27 28  2  0
  4 29  1  0
 29 30  2  0
 30  1  1  0
 22  5  2  0
 28 23  1  0
 21  7  1  0
 20 15  1  0
  1 31  1  0
  2 32  1  0
  3 33  1  0
  9 34  1  0
 10 35  1  0
 12 36  1  0
 13 37  1  0
 13 38  1  0
 14 39  1  0
 14 40  1  0
 15 41  1  0
 16 42  1  0
 16 43  1  0
 17 44  1  0
 17 45  1  0
 18 46  1  0
 18 47  1  0
 19 48  1  0
 19 49  1  0
 20 50  1  0
 20 51  1  0
 24 52  1  0
 25 53  1  0
 26 54  1  0
 27 55  1  0
 28 56  1  0
 29 57  1  0
 30 58  1  0
M  CHG  2  15   1  18   1
M  END
>  <meeko>  (19) 
{"free_energy": -11.098, "intermolecular_energy": -10.052, "internal_energy": -1.788}

$$$$

     RDKit          3D

 58 62  0  0  0  0  0  0  0  0999 V2000
   27.5440   36.6480   82.7230 C   0  0  0  0  0  0  0  0  0  0  0  0
   27.3980   37.6150   83.7890 C   0  0  0  0  0  0  0  0  0  0  0  0
   26.1150   37.8260   84.3980 C   0  0  0  0  0  0  0  0  0  0  0  0
   24.9780   37.0790   83.9370 C   0  0  0  0  0  0  0  0  0  0  0  0
   23.6560   37.3140   84.6030 C   0  0  0  0  0  0  0  0  0  0  0  0
   22.8240   36.2640   84.9390 O   0  0  0  0  0  0  0  0  0  0  0  0
   21.7290   36.8280   85.5100 C   0  0  0  0  0  0  0  0  0  0  0  0
   20.6150   36.1690   86.0120 N   0  0  0  0  0  0  0  0  0  0  0  0
   19.5670   36.8290   86.5670 C   0  0  0  0  0  0  0  0  0  0  0  0
   19.5870   38.2440   86.6770 C   0  0  0  0  0  0  0  0  0  0  0  0
   20.7210   38.9790   86.1740 C   0  0  0  0  0  0  0  0  0  0  0  0
   20.7810   40.3550   86.2610 N   0  0  0  0  0  0  0  0  0  0  0  0
   20.6690   41.0780   87.5210 C   0  0  0  0  0  0  0  0  0  0  0  0
   21.8430   40.8090   88.4660 C   0  0  0  0  0  0  0  0  0  0  0  0
   22.2490   41.9590   89.3130 N   0  0  0  0  0  4  0  0  0  0  0  0
   20.9840   42.6100   89.7480 C   0  0  0  0  0  0  0  0  0  0  0  0
   21.2930   43.8310   90.6340 C   0  0  0  0  0  0  0  0  0  0  0  0
   22.1700   44.7740   89.8780 N   0  0  0  0  0  4  0  0  0  0  0  0
   23.4420   44.1180   89.4370 C   0  0  0  0  0  0  0  0  0  0  0  0
   23.0840   42.9170   88.5350 C   0  0  0  0  0  0  0  0  0  0  0  0
   21.8320   38.2380   85.5710 C   0  0  0  0  0  0  0  0  0  0  0  0
   23.0390   38.6390   85.0060 C   0  0  0  0  0  0  0  0  0  0  0  0
   23.5280   40.0330   84.8650 C   0  0  0  0  0  0  0  0  0  0  0  0
   23.0660   40.8590   83.7840 C   0  0  0  0  0  0  0  0  0  0  0  0
   23.5610   42.1970   83.6550 C   0  0  0  0  0  0  0  0  0  0  0  0
   24.5200   42.7000   84.6110 C   0  0  0  0  0  0  0  0  0  0  0  0
   24.9850   41.8740   85.7020 C   0  0  0  0  0  0  0  0  0  0  0  0
   24.4880   40.5360   85.8270 C   0  0  0  0  0  0  0  0  0  0  0  0
   25.1490   36.1170   82.8600 C   0  0  0  0  0  0  0  0  0  0  0  0
   26.4170   35.9000   82.2550 C   0  0  0  0  0  0  0  0  0  0  0  0
   28.5319   36.4858   82.2672 H   0  0  0  0  0  0  0  0  0  0  0  0
   28.2708   38.1892   84.1333 H   0  0  0  0  0  0  0  0  0  0  0  0
   26.0033   38.5559   85.2134 H   0  0  0  0  0  0  0  0  0  0  0  0
   18.6972   36.2642   86.9336 H   0  0  0  0  0  0  0  0  0  0  0  0
   18.7440   38.7757   87.1423 H   0  0  0  0  0  0  0  0  0  0  0  0
   20.0210   40.6850   85.7010 H   0  0  0  0  0  0  0  0  0  0  0  0
   20.6313   42.1560   87.3054 H   0  0  0  0  0  0  0  0  0  0  0  0
   19.7539   40.7297   88.0223 H   0  0  0  0  0  0  0  0  0  0  0  0
   21.5614   39.9792   89.1310 H   0  0  0  0  0  0  0  0  0  0  0  0
   22.7067   40.5832   87.8233 H   0  0  0  0  0  0  0  0  0  0  0  0
   22.7980   41.6600   90.0930 H   0  0  0  0  0  0  0  0  0  0  0  0
   20.4201   42.9371   88.8620 H   0  0  0  0  0  0  0  0  0  0  0  0
   20.3885   41.8880   90.3260 H   0  0  0  0  0  0  0  0  0  0  0  0
   20.3544   44.3371   90.9040 H   0  0  0  0  0  0  0  0  0  0  0  0
   21.8047   43.5034   91.5510 H   0  0  0  0  0  0  0  0  0  0  0  0
   21.6770   45.0930   89.0700 H   0  0  0  0  0  0  0  0  0  0  0  0
   22.3980   45.5460   90.4710 H   0  0  0  0  0  0  0  0  0  0  0  0
   24.0544   44.8368   88.8728 H   0  0  0  0  0  0  0  0  0  0  0  0
   24.0139   43.7760   90.3122 H   0  0  0  0  0  0  0  0  0  0  0  0
   22.5212   43.2691   87.6579 H   0  0  0  0  0  0  0  0  0  0  0  0
   24.0043   42.4186   88.1966 H   0  0  0  0  0  0  0  0  0  0  0  0
   22.3368   40.4664   83.0600 H   0  0  0  0  0  0  0  0  0  0  0  0
   23.2126   42.8383   82.8320 H   0  0  0  0  0  0  0  0  0  0  0  0
   24.9018   43.7264   84.5071 H   0  0  0  0  0  0  0  0  0  0  0  0
   25.7118   42.2678   86.4277 H   0  0  0  0  0  0  0  0  0  0  0  0
   24.8338   39.8931   86.6499 H   0  0  0  0  0  0  0  0  0  0  0  0
   24.2787   35.5450   82.5059 H   0  0  0  0  0  0  0  0  0  0  0  0
   26.5302   35.1693   81.4406 H   0  0  0  0  0  0  0  0  0  0  0  0
  1  2  2  0
  2  3  1  0
  3  4  2  0
  4  5  1  0
  5  6  1  0
  6  7  1  0
  7  8  2  0
  8  9  1  0
  9 10  2  0
 10 11  1  0
 11 12  1  0
 12 13  1  0
 13 14  1  0
 14 15  1  0
 15 16  1  0
 16 17  1  0
 17 18  1  0
 18 19  1  0
 19 20  1  0
 11 21  2  0
 21 22  1  0
 22 23  1  0
 23 24  2  0
 24 25  1  0
 25 26  2  0
 26 27  1  0
 27 28  2  0
  4 29  1  0
 29 30  2  0
 30  1  1  0
 22  5  2  0
 28 23  1  0
 21  7  1  0
 20 15  1  0
  1 31  1  0
  2 32  1  0
  3 33  1  0
  9 34  1  0
 10 35  1  0
 12 36  1  0
 13 37  1  0
 13 38  1  0
 14 39  1  0
 14 40  1  0
 15 41  1  0
 16 42  1  0
 16 43  1  0
 17 44  1  0
 17 45  1  0
 18 46  1  0
 18 47  1  0
 19 48  1  0
 19 49  1  0
 20 50  1  0
 20 51  1  0
 24 52  1  0
 25 53  1  0
 26 54  1  0
 27 55  1  0
 28 56  1  0
 29 57  1  0
 30 58  1  0
M  CHG  2  15   1  18   1
M  END
>  <meeko>  (20) 
{"free_energy": -11.085, "intermolecular_energy": -10.279, "internal_energy": -1.542}

$$$$

     RDKit          3D

 58 62  0  0  0  0  0  0  0  0999 V2000
   19.5670   37.1790   84.7130 C   0  0  0  0  0  0  0  0  0  0  0  0
   20.2640   38.1660   83.9170 C   0  0  0  0  0  0  0  0  0  0  0  0
   21.4980   38.7300   84.3880 C   0  0  0  0  0  0  0  0  0  0  0  0
   22.0300   38.3150   85.6570 C   0  0  0  0  0  0  0  0  0  0  0  0
   23.3260   38.9140   86.1120 C   0  0  0  0  0  0  0  0  0  0  0  0
   23.3700   39.8290   87.1460 O   0  0  0  0  0  0  0  0  0  0  0  0
   24.6790   40.1630   87.2880 C   0  0  0  0  0  0  0  0  0  0  0  0
   25.2190   41.0530   88.2060 N   0  0  0  0  0  0  0  0  0  0  0  0
   26.5490   41.3190   88.2670 C   0  0  0  0  0  0  0  0  0  0  0  0
   27.4520   40.6630   87.3920 C   0  0  0  0  0  0  0  0  0  0  0  0
   26.9450   39.7270   86.4190 C   0  0  0  0  0  0  0  0  0  0  0  0
   27.7890   39.0680   85.5490 N   0  0  0  0  0  0  0  0  0  0  0  0
   28.9990   39.6700   85.0030 C   0  0  0  0  0  0  0  0  0  0  0  0
   28.7040   40.7210   83.9280 C   0  0  0  0  0  0  0  0  0  0  0  0
   29.0030   42.1220   84.3160 N   0  0  0  0  0  4  0  0  0  0  0  0
   29.8570   42.0350   85.5320 C   0  0  0  0  0  0  0  0  0  0  0  0
   30.2220   43.4470   86.0270 C   0  0  0  0  0  0  0  0  0  0  0  0
   28.9680   44.2130   86.2850 N   0  0  0  0  0  4  0  0  0  0  0  0
   28.1060   44.2980   85.0640 C   0  0  0  0  0  0  0  0  0  0  0  0
   27.7470   42.8640   84.6190 C   0  0  0  0  0  0  0  0  0  0  0  0
   25.5030   39.4690   86.3710 C   0  0  0  0  0  0  0  0  0  0  0  0
   24.7160   38.6450   85.5720 C   0  0  0  0  0  0  0  0  0  0  0  0
   25.1920   37.7580   84.4810 C   0  0  0  0  0  0  0  0  0  0  0  0
   25.9370   38.2990   83.3780 C   0  0  0  0  0  0  0  0  0  0  0  0
   26.3740   37.4300   82.3270 C   0  0  0  0  0  0  0  0  0  0  0  0
   26.0590   36.0210   82.3850 C   0  0  0  0  0  0  0  0  0  0  0  0
   25.3130   35.4720   83.4950 C   0  0  0  0  0  0  0  0  0  0  0  0
   24.8770   36.3450   84.5440 C   0  0  0  0  0  0  0  0  0  0  0  0
   21.3080   37.3270   86.4410 C   0  0  0  0  0  0  0  0  0  0  0  0
   20.0880   36.7620   85.9790 C   0  0  0  0  0  0  0  0  0  0  0  0
   18.6272   36.7448   84.3413 H   0  0  0  0  0  0  0  0  0  0  0  0
   19.8482   38.4848   82.9498 H   0  0  0  0  0  0  0  0  0  0  0  0
   22.0329   39.4753   83.7810 H   0  0  0  0  0  0  0  0  0  0  0  0
   26.9282   42.0472   88.9990 H   0  0  0  0  0  0  0  0  0  0  0  0
   28.5312   40.8666   87.4550 H   0  0  0  0  0  0  0  0  0  0  0  0
   27.2240   38.8490   84.7530 H   0  0  0  0  0  0  0  0  0  0  0  0
   29.5533   40.1509   85.8224 H   0  0  0  0  0  0  0  0  0  0  0  0
   29.5851   38.8677   84.5309 H   0  0  0  0  0  0  0  0  0  0  0  0
   29.3059   40.4779   83.0399 H   0  0  0  0  0  0  0  0  0  0  0  0
   27.6196   40.6785   83.7485 H   0  0  0  0  0  0  0  0  0  0  0  0
   29.4620   42.6140   83.5770 H   0  0  0  0  0  0  0  0  0  0  0  0
   29.3092   41.5027   86.3235 H   0  0  0  0  0  0  0  0  0  0  0  0
   30.7806   41.4914   85.2841 H   0  0  0  0  0  0  0  0  0  0  0  0
   30.8057   43.3721   86.9563 H   0  0  0  0  0  0  0  0  0  0  0  0
   30.8217   43.9640   85.2634 H   0  0  0  0  0  0  0  0  0  0  0  0
   28.4540   43.7530   87.0090 H   0  0  0  0  0  0  0  0  0  0  0  0
   29.2110   45.1400   86.5710 H   0  0  0  0  0  0  0  0  0  0  0  0
   27.1868   44.8557   85.2965 H   0  0  0  0  0  0  0  0  0  0  0  0
   28.6430   44.8200   84.2583 H   0  0  0  0  0  0  0  0  0  0  0  0
   27.2021   42.3527   85.4263 H   0  0  0  0  0  0  0  0  0  0  0  0
   27.1114   42.9011   83.7220 H   0  0  0  0  0  0  0  0  0  0  0  0
   26.1701   39.3734   83.3411 H   0  0  0  0  0  0  0  0  0  0  0  0
   26.9470   37.8334   81.4791 H   0  0  0  0  0  0  0  0  0  0  0  0
   26.3914   35.3570   81.5735 H   0  0  0  0  0  0  0  0  0  0  0  0
   25.0829   34.3970   83.5337 H   0  0  0  0  0  0  0  0  0  0  0  0
   24.3053   35.9442   85.3940 H   0  0  0  0  0  0  0  0  0  0  0  0
   21.7142   37.0096   87.4127 H   0  0  0  0  0  0  0  0  0  0  0  0
   19.5529   36.0161   86.5850 H   0  0  0  0  0  0  0  0  0  0  0  0
  1  2  2  0
  2  3  1  0
  3  4  2  0
  4  5  1  0
  5  6  1  0
  6  7  1  0
  7  8  2  0
  8  9  1  0
  9 10  2  0
 10 11  1  0
 11 12  1  0
 12 13  1  0
 13 14  1  0
 14 15  1  0
 15 16  1  0
 16 17  1  0
 17 18  1  0
 18 19  1  0
 19 20  1  0
 11 21  2  0
 21 22  1  0
 22 23  1  0
 23 24  2  0
 24 25  1  0
 25 26  2  0
 26 27  1  0
 27 28  2  0
  4 29  1  0
 29 30  2  0
 30  1  1  0
 22  5  2  0
 28 23  1  0
 21  7  1  0
 20 15  1  0
  1 31  1  0
  2 32  1  0
  3 33  1  0
  9 34  1  0
 10 35  1  0
 12 36  1  0
 13 37  1  0
 13 38  1  0
 14 39  1  0
 14 40  1  0
 15 41  1  0
 16 42  1  0
 16 43  1  0
 17 44  1  0
 17 45  1  0
 18 46  1  0
 18 47  1  0
 19 48  1  0
 19 49  1  0
 20 50  1  0
 20 51  1  0
 24 52  1  0
 25 53  1  0
 26 54  1  0
 27 55  1  0
 28 56  1  0
 29 57  1  0
 30 58  1  0
M  CHG  2  15   1  18   1
M  END
>  <meeko>  (21) 
{"free_energy": -11.07, "intermolecular_energy": -10.668, "internal_energy": -1.134}

$$$$

     RDKit          3D

 58 62  0  0  0  0  0  0  0  0999 V2000
   19.5680   37.1490   84.4100 C   0  0  0  0  0  0  0  0  0  0  0  0
   20.2410   38.2300   83.7230 C   0  0  0  0  0  0  0  0  0  0  0  0
   21.4450   38.7900   84.2700 C   0  0  0  0  0  0  0  0  0  0  0  0
   21.9710   38.2770   85.5050 C   0  0  0  0  0  0  0  0  0  0  0  0
   23.2360   38.8750   86.0400 C   0  0  0  0  0  0  0  0  0  0  0  0
   23.2180   39.7730   87.0890 O   0  0  0  0  0  0  0  0  0  0  0  0
   24.5150   40.1120   87.3090 C   0  0  0  0  0  0  0  0  0  0  0  0
   24.9980   40.9890   88.2700 N   0  0  0  0  0  0  0  0  0  0  0  0
   26.3210   41.2610   88.4080 C   0  0  0  0  0  0  0  0  0  0  0  0
   27.2750   40.6260   87.5720 C   0  0  0  0  0  0  0  0  0  0  0  0
   26.8280   39.7030   86.5570 C   0  0  0  0  0  0  0  0  0  0  0  0
   27.7220   39.0640   85.7240 N   0  0  0  0  0  0  0  0  0  0  0  0
   28.8360   39.7460   85.0780 C   0  0  0  0  0  0  0  0  0  0  0  0
   28.3780   40.8340   84.1020 C   0  0  0  0  0  0  0  0  0  0  0  0
   27.5010   41.8790   84.6870 N   0  0  0  0  0  4  0  0  0  0  0  0
   26.2540   41.8660   83.8760 C   0  0  0  0  0  0  0  0  0  0  0  0
   25.2690   42.9280   84.4000 C   0  0  0  0  0  0  0  0  0  0  0  0
   25.9330   44.2650   84.3730 N   0  0  0  0  0  4  0  0  0  0  0  0
   27.1900   44.2780   85.1860 C   0  0  0  0  0  0  0  0  0  0  0  0
   28.1540   43.2170   84.6120 C   0  0  0  0  0  0  0  0  0  0  0  0
   25.3930   39.4380   86.4270 C   0  0  0  0  0  0  0  0  0  0  0  0
   24.6560   38.6240   85.5720 C   0  0  0  0  0  0  0  0  0  0  0  0
   25.1960   37.7580   84.4950 C   0  0  0  0  0  0  0  0  0  0  0  0
   25.9330   38.3320   83.4020 C   0  0  0  0  0  0  0  0  0  0  0  0
   26.4330   37.4820   82.3640 C   0  0  0  0  0  0  0  0  0  0  0  0
   26.1890   36.0590   82.4230 C   0  0  0  0  0  0  0  0  0  0  0  0
   25.4520   35.4770   83.5220 C   0  0  0  0  0  0  0  0  0  0  0  0
   24.9520   36.3310   84.5580 C   0  0  0  0  0  0  0  0  0  0  0  0
   21.2730   37.1950   86.1780 C   0  0  0  0  0  0  0  0  0  0  0  0
   20.0820   36.6330   85.6420 C   0  0  0  0  0  0  0  0  0  0  0  0
   18.6511   36.7190   83.9806 H   0  0  0  0  0  0  0  0  0  0  0  0
   19.8303   38.6231   82.7813 H   0  0  0  0  0  0  0  0  0  0  0  0
   21.9620   39.6075   83.7462 H   0  0  0  0  0  0  0  0  0  0  0  0
   26.6550   41.9779   89.1725 H   0  0  0  0  0  0  0  0  0  0  0  0
   28.3476   40.8357   87.6966 H   0  0  0  0  0  0  0  0  0  0  0  0
   27.1680   38.7010   84.9750 H   0  0  0  0  0  0  0  0  0  0  0  0
   29.4619   40.2105   85.8542 H   0  0  0  0  0  0  0  0  0  0  0  0
   29.3946   38.9952   84.4999 H   0  0  0  0  0  0  0  0  0  0  0  0
   29.2740   41.3284   83.6985 H   0  0  0  0  0  0  0  0  0  0  0  0
   27.7756   40.3234   83.3362 H   0  0  0  0  0  0  0  0  0  0  0  0
   27.3170   41.6990   85.6530 H   0  0  0  0  0  0  0  0  0  0  0  0
   26.5005   42.0851   82.8266 H   0  0  0  0  0  0  0  0  0  0  0  0
   25.7862   40.8733   83.9519 H   0  0  0  0  0  0  0  0  0  0  0  0
   24.3742   42.9480   83.7605 H   0  0  0  0  0  0  0  0  0  0  0  0
   24.9721   42.6822   85.4303 H   0  0  0  0  0  0  0  0  0  0  0  0
   26.1600   44.4910   83.4270 H   0  0  0  0  0  0  0  0  0  0  0  0
   25.3010   44.9440   84.7480 H   0  0  0  0  0  0  0  0  0  0  0  0
   27.6572   45.2724   85.1315 H   0  0  0  0  0  0  0  0  0  0  0  0
   26.9617   44.0509   86.2378 H   0  0  0  0  0  0  0  0  0  0  0  0
   28.3848   43.4568   83.5636 H   0  0  0  0  0  0  0  0  0  0  0  0
   29.0876   43.2087   85.1936 H   0  0  0  0  0  0  0  0  0  0  0  0
   26.1115   39.4167   83.3635 H   0  0  0  0  0  0  0  0  0  0  0  0
   27.0007   37.9106   81.5249 H   0  0  0  0  0  0  0  0  0  0  0  0
   26.5693   35.4097   81.6206 H   0  0  0  0  0  0  0  0  0  0  0  0
   25.2772   34.3917   83.5624 H   0  0  0  0  0  0  0  0  0  0  0  0
   24.3847   35.9048   85.3986 H   0  0  0  0  0  0  0  0  0  0  0  0
   21.6750   36.8018   87.1234 H   0  0  0  0  0  0  0  0  0  0  0  0
   19.5645   35.8155   86.1653 H   0  0  0  0  0  0  0  0  0  0  0  0
  1  2  2  0
  2  3  1  0
  3  4  2  0
  4  5  1  0
  5  6  1  0
  6  7  1  0
  7  8  2  0
  8  9  1  0
  9 10  2  0
 10 11  1  0
 11 12  1  0
 12 13  1  0
 13 14  1  0
 14 15  1  0
 15 16  1  0
 16 17  1  0
 17 18  1  0
 18 19  1  0
 19 20  1  0
 11 21  2  0
 21 22  1  0
 22 23  1  0
 23 24  2  0
 24 25  1  0
 25 26  2  0
 26 27  1  0
 27 28  2  0
  4 29  1  0
 29 30  2  0
 30  1  1  0
 22  5  2  0
 28 23  1  0
 21  7  1  0
 20 15  1  0
  1 31  1  0
  2 32  1  0
  3 33  1  0
  9 34  1  0
 10 35  1  0
 12 36  1  0
 13 37  1  0
 13 38  1  0
 14 39  1  0
 14 40  1  0
 15 41  1  0
 16 42  1  0
 16 43  1  0
 17 44  1  0
 17 45  1  0
 18 46  1  0
 18 47  1  0
 19 48  1  0
 19 49  1  0
 20 50  1  0
 20 51  1  0
 24 52  1  0
 25 53  1  0
 26 54  1  0
 27 55  1  0
 28 56  1  0
 29 57  1  0
 30 58  1  0
M  CHG  2  15   1  18   1
M  END
>  <meeko>  (22) 
{"free_energy": -10.976, "intermolecular_energy": -10.954, "internal_energy": -0.72}

$$$$

     RDKit          3D

 58 62  0  0  0  0  0  0  0  0999 V2000
   31.0130   37.1480   82.9560 C   0  0  0  0  0  0  0  0  0  0  0  0
   30.3670   38.1400   83.7880 C   0  0  0  0  0  0  0  0  0  0  0  0
   28.9410   38.1210   83.9560 C   0  0  0  0  0  0  0  0  0  0  0  0
   28.1600   37.1170   83.2870 C   0  0  0  0  0  0  0  0  0  0  0  0
   26.6760   37.1180   83.4940 C   0  0  0  0  0  0  0  0  0  0  0  0
   25.8860   36.0840   83.0320 O   0  0  0  0  0  0  0  0  0  0  0  0
   24.6140   36.4050   83.3810 C   0  0  0  0  0  0  0  0  0  0  0  0
   23.4660   35.6660   83.1320 N   0  0  0  0  0  0  0  0  0  0  0  0
   22.2340   36.0780   83.5250 C   0  0  0  0  0  0  0  0  0  0  0  0
   22.0790   37.2930   84.2410 C   0  0  0  0  0  0  0  0  0  0  0  0
   23.2380   38.1010   84.5290 C   0  0  0  0  0  0  0  0  0  0  0  0
   23.1310   39.2890   85.2220 N   0  0  0  0  0  0  0  0  0  0  0  0
   22.7120   40.5380   84.6010 C   0  0  0  0  0  0  0  0  0  0  0  0
   21.5850   41.2340   85.3710 C   0  0  0  0  0  0  0  0  0  0  0  0
   21.9930   42.4430   86.1290 N   0  0  0  0  0  4  0  0  0  0  0  0
   23.1930   42.9770   85.4300 C   0  0  0  0  0  0  0  0  0  0  0  0
   23.7070   44.2410   86.1460 C   0  0  0  0  0  0  0  0  0  0  0  0
   23.9980   43.9090   87.5720 N   0  0  0  0  0  4  0  0  0  0  0  0
   22.7920   43.3680   88.2750 C   0  0  0  0  0  0  0  0  0  0  0  0
   22.3280   42.0930   87.5380 C   0  0  0  0  0  0  0  0  0  0  0  0
   24.5530   37.6330   84.0820 C   0  0  0  0  0  0  0  0  0  0  0  0
   25.8340   38.1640   84.1980 C   0  0  0  0  0  0  0  0  0  0  0  0
   26.2040   39.4420   84.8560 C   0  0  0  0  0  0  0  0  0  0  0  0
   26.3260   40.6480   84.0830 C   0  0  0  0  0  0  0  0  0  0  0  0
   26.6990   41.8690   84.7340 C   0  0  0  0  0  0  0  0  0  0  0  0
   26.9510   41.8740   86.1560 C   0  0  0  0  0  0  0  0  0  0  0  0
   26.8260   40.6640   86.9370 C   0  0  0  0  0  0  0  0  0  0  0  0
   26.4540   39.4450   86.2830 C   0  0  0  0  0  0  0  0  0  0  0  0
   28.8310   36.1350   82.4520 C   0  0  0  0  0  0  0  0  0  0  0  0
   30.2430   36.1460   82.2840 C   0  0  0  0  0  0  0  0  0  0  0  0
   32.1066   37.1641   82.8388 H   0  0  0  0  0  0  0  0  0  0  0  0
   30.9692   38.9099   84.2926 H   0  0  0  0  0  0  0  0  0  0  0  0
   28.4491   38.8707   84.5932 H   0  0  0  0  0  0  0  0  0  0  0  0
   21.3510   35.4667   83.2871 H   0  0  0  0  0  0  0  0  0  0  0  0
   21.0817   37.6163   84.5740 H   0  0  0  0  0  0  0  0  0  0  0  0
   24.0490   39.4680   85.5760 H   0  0  0  0  0  0  0  0  0  0  0  0
   23.5773   41.2156   84.5553 H   0  0  0  0  0  0  0  0  0  0  0  0
   22.3292   40.2976   83.5982 H   0  0  0  0  0  0  0  0  0  0  0  0
   20.8109   41.5304   84.6479 H   0  0  0  0  0  0  0  0  0  0  0  0
   21.2317   40.5086   86.1187 H   0  0  0  0  0  0  0  0  0  0  0  0
   21.2550   43.1170   86.1630 H   0  0  0  0  0  0  0  0  0  0  0  0
   23.9838   42.2124   85.4300 H   0  0  0  0  0  0  0  0  0  0  0  0
   22.9208   43.2356   84.3961 H   0  0  0  0  0  0  0  0  0  0  0  0
   24.6256   44.5948   85.6551 H   0  0  0  0  0  0  0  0  0  0  0  0
   22.9435   45.0314   86.0974 H   0  0  0  0  0  0  0  0  0  0  0  0
   24.7210   43.2200   87.6000 H   0  0  0  0  0  0  0  0  0  0  0  0
   24.2960   44.7410   88.0410 H   0  0  0  0  0  0  0  0  0  0  0  0
   23.0481   43.1226   89.3162 H   0  0  0  0  0  0  0  0  0  0  0  0
   21.9872   44.1179   88.2753 H   0  0  0  0  0  0  0  0  0  0  0  0
   23.1347   41.3453   87.5506 H   0  0  0  0  0  0  0  0  0  0  0  0
   21.4418   41.6757   88.0385 H   0  0  0  0  0  0  0  0  0  0  0  0
   26.1345   40.6337   82.9999 H   0  0  0  0  0  0  0  0  0  0  0  0
   26.7929   42.7984   84.1531 H   0  0  0  0  0  0  0  0  0  0  0  0
   27.2422   42.8118   86.6518 H   0  0  0  0  0  0  0  0  0  0  0  0
   27.0143   40.6791   88.0207 H   0  0  0  0  0  0  0  0  0  0  0  0
   26.3585   38.5147   86.8621 H   0  0  0  0  0  0  0  0  0  0  0  0
   28.2339   35.3667   81.9389 H   0  0  0  0  0  0  0  0  0  0  0  0
   30.7357   35.3962   81.6476 H   0  0  0  0  0  0  0  0  0  0  0  0
  1  2  2  0
  2  3  1  0
  3  4  2  0
  4  5  1  0
  5  6  1  0
  6  7  1  0
  7  8  2  0
  8  9  1  0
  9 10  2  0
 10 11  1  0
 11 12  1  0
 12 13  1  0
 13 14  1  0
 14 15  1  0
 15 16  1  0
 16 17  1  0
 17 18  1  0
 18 19  1  0
 19 20  1  0
 11 21  2  0
 21 22  1  0
 22 23  1  0
 23 24  2  0
 24 25  1  0
 25 26  2  0
 26 27  1  0
 27 28  2  0
  4 29  1  0
 29 30  2  0
 30  1  1  0
 22  5  2  0
 28 23  1  0
 21  7  1  0
 20 15  1  0
  1 31  1  0
  2 32  1  0
  3 33  1  0
  9 34  1  0
 10 35  1  0
 12 36  1  0
 13 37  1  0
 13 38  1  0
 14 39  1  0
 14 40  1  0
 15 41  1  0
 16 42  1  0
 16 43  1  0
 17 44  1  0
 17 45  1  0
 18 46  1  0
 18 47  1  0
 19 48  1  0
 19 49  1  0
 20 50  1  0
 20 51  1  0
 24 52  1  0
 25 53  1  0
 26 54  1  0
 27 55  1  0
 28 56  1  0
 29 57  1  0
 30 58  1  0
M  CHG  2  15   1  18   1
M  END
>  <meeko>  (23) 
{"free_energy": -10.955, "intermolecular_energy": -10.144, "internal_energy": -1.502}

$$$$

     RDKit          3D

 58 62  0  0  0  0  0  0  0  0999 V2000
   31.7930   36.0960   83.1810 C   0  0  0  0  0  0  0  0  0  0  0  0
   32.0760   37.2380   84.0230 C   0  0  0  0  0  0  0  0  0  0  0  0
   31.0740   38.2440   84.2310 C   0  0  0  0  0  0  0  0  0  0  0  0
   29.7930   38.1150   83.5930 C   0  0  0  0  0  0  0  0  0  0  0  0
   28.7660   39.1770   83.8420 C   0  0  0  0  0  0  0  0  0  0  0  0
   29.1320   40.4780   84.1250 O   0  0  0  0  0  0  0  0  0  0  0  0
   27.9710   41.1600   84.2990 C   0  0  0  0  0  0  0  0  0  0  0  0
   27.8290   42.5080   84.6000 N   0  0  0  0  0  0  0  0  0  0  0  0
   26.6160   43.0970   84.7540 C   0  0  0  0  0  0  0  0  0  0  0  0
   25.4260   42.3420   84.5850 C   0  0  0  0  0  0  0  0  0  0  0  0
   25.5140   40.9380   84.2690 C   0  0  0  0  0  0  0  0  0  0  0  0
   24.3820   40.1690   84.0970 N   0  0  0  0  0  0  0  0  0  0  0  0
   23.2150   40.2640   84.9640 C   0  0  0  0  0  0  0  0  0  0  0  0
   23.4470   39.6340   86.3410 C   0  0  0  0  0  0  0  0  0  0  0  0
   23.4040   40.5810   87.4830 N   0  0  0  0  0  4  0  0  0  0  0  0
   22.6830   41.7850   86.9880 C   0  0  0  0  0  0  0  0  0  0  0  0
   22.5890   42.8430   88.1030 C   0  0  0  0  0  0  0  0  0  0  0  0
   23.9650   43.1770   88.5770 N   0  0  0  0  0  4  0  0  0  0  0  0
   24.6920   41.9650   89.0710 C   0  0  0  0  0  0  0  0  0  0  0  0
   24.7830   40.9450   87.9160 C   0  0  0  0  0  0  0  0  0  0  0  0
   26.8390   40.3290   84.1200 C   0  0  0  0  0  0  0  0  0  0  0  0
   27.2570   39.0350   83.8270 C   0  0  0  0  0  0  0  0  0  0  0  0
   26.3830   37.8610   83.5770 C   0  0  0  0  0  0  0  0  0  0  0  0
   25.6550   37.2550   84.6580 C   0  0  0  0  0  0  0  0  0  0  0  0
   24.8290   36.1130   84.4000 C   0  0  0  0  0  0  0  0  0  0  0  0
   24.7400   35.5810   83.0600 C   0  0  0  0  0  0  0  0  0  0  0  0
   25.4690   36.1900   81.9700 C   0  0  0  0  0  0  0  0  0  0  0  0
   26.2940   37.3310   82.2320 C   0  0  0  0  0  0  0  0  0  0  0  0
   29.5350   36.9620   82.7460 C   0  0  0  0  0  0  0  0  0  0  0  0
   30.5220   35.9600   82.5380 C   0  0  0  0  0  0  0  0  0  0  0  0
   32.5629   35.3243   83.0336 H   0  0  0  0  0  0  0  0  0  0  0  0
   33.0603   37.3352   84.5043 H   0  0  0  0  0  0  0  0  0  0  0  0
   31.2856   39.1097   84.8758 H   0  0  0  0  0  0  0  0  0  0  0  0
   26.5548   44.1648   85.0111 H   0  0  0  0  0  0  0  0  0  0  0  0
   24.4436   42.8246   84.6943 H   0  0  0  0  0  0  0  0  0  0  0  0
   24.6940   39.2220   84.1820 H   0  0  0  0  0  0  0  0  0  0  0  0
   22.9642   41.3262   85.1010 H   0  0  0  0  0  0  0  0  0  0  0  0
   22.3964   39.7112   84.4800 H   0  0  0  0  0  0  0  0  0  0  0  0
   22.6709   38.8712   86.5017 H   0  0  0  0  0  0  0  0  0  0  0  0
   24.4676   39.2241   86.3218 H   0  0  0  0  0  0  0  0  0  0  0  0
   22.9470   40.1750   88.2740 H   0  0  0  0  0  0  0  0  0  0  0  0
   23.2272   42.2078   86.1306 H   0  0  0  0  0  0  0  0  0  0  0  0
   21.6673   41.4949   86.6813 H   0  0  0  0  0  0  0  0  0  0  0  0
   22.1044   43.7493   87.7109 H   0  0  0  0  0  0  0  0  0  0  0  0
   21.9946   42.4476   88.9399 H   0  0  0  0  0  0  0  0  0  0  0  0
   24.4790   43.5710   87.8160 H   0  0  0  0  0  0  0  0  0  0  0  0
   23.8950   43.8370   89.3250 H   0  0  0  0  0  0  0  0  0  0  0  0
   25.7038   42.2467   89.3981 H   0  0  0  0  0  0  0  0  0  0  0  0
   24.1540   41.5234   89.9228 H   0  0  0  0  0  0  0  0  0  0  0  0
   25.3294   41.3910   87.0718 H   0  0  0  0  0  0  0  0  0  0  0  0
   25.3167   40.0449   88.2551 H   0  0  0  0  0  0  0  0  0  0  0  0
   25.7314   37.6649   85.6759 H   0  0  0  0  0  0  0  0  0  0  0  0
   24.2648   35.6432   85.2192 H   0  0  0  0  0  0  0  0  0  0  0  0
   24.1092   34.7009   82.8663 H   0  0  0  0  0  0  0  0  0  0  0  0
   25.3909   35.7818   80.9515 H   0  0  0  0  0  0  0  0  0  0  0  0
   26.8583   37.8033   81.4144 H   0  0  0  0  0  0  0  0  0  0  0  0
   28.5554   36.8627   82.2556 H   0  0  0  0  0  0  0  0  0  0  0  0
   30.3119   35.0940   81.8931 H   0  0  0  0  0  0  0  0  0  0  0  0
  1  2  2  0
  2  3  1  0
  3  4  2  0
  4  5  1  0
  5  6  1  0
  6  7  1  0
  7  8  2  0
  8  9  1  0
  9 10  2  0
 10 11  1  0
 11 12  1  0
 12 13  1  0
 13 14  1  0
 14 15  1  0
 15 16  1  0
 16 17  1  0
 17 18  1  0
 18 19  1  0
 19 20  1  0
 11 21  2  0
 21 22  1  0
 22 23  1  0
 23 24  2  0
 24 25  1  0
 25 26  2  0
 26 27  1  0
 27 28  2  0
  4 29  1  0
 29 30  2  0
 30  1  1  0
 22  5  2  0
 28 23  1  0
 21  7  1  0
 20 15  1  0
  1 31  1  0
  2 32  1  0
  3 33  1  0
  9 34  1  0
 10 35  1  0
 12 36  1  0
 13 37  1  0
 13 38  1  0
 14 39  1  0
 14 40  1  0
 15 41  1  0
 16 42  1  0
 16 43  1  0
 17 44  1  0
 17 45  1  0
 18 46  1  0
 18 47  1  0
 19 48  1  0
 19 49  1  0
 20 50  1  0
 20 51  1  0
 24 52  1  0
 25 53  1  0
 26 54  1  0
 27 55  1  0
 28 56  1  0
 29 57  1  0
 30 58  1  0
M  CHG  2  15   1  18   1
M  END
>  <meeko>  (24) 
{"free_energy": -10.949, "intermolecular_energy": -10.265, "internal_energy": -1.373}

$$$$

     RDKit          3D

 58 62  0  0  0  0  0  0  0  0999 V2000
   22.4090   36.0910   83.3650 C   0  0  0  0  0  0  0  0  0  0  0  0
   23.1980   35.4470   82.3380 C   0  0  0  0  0  0  0  0  0  0  0  0
   24.6160   35.6640   82.2790 C   0  0  0  0  0  0  0  0  0  0  0  0
   25.2440   36.5290   83.2380 C   0  0  0  0  0  0  0  0  0  0  0  0
   26.7280   36.7230   83.1550 C   0  0  0  0  0  0  0  0  0  0  0  0
   27.5380   35.7990   82.5240 O   0  0  0  0  0  0  0  0  0  0  0  0
   28.8040   36.2780   82.6390 C   0  0  0  0  0  0  0  0  0  0  0  0
   29.9660   35.6930   82.1550 N   0  0  0  0  0  0  0  0  0  0  0  0
   31.1890   36.2560   82.3230 C   0  0  0  0  0  0  0  0  0  0  0  0
   31.3200   37.4990   82.9930 C   0  0  0  0  0  0  0  0  0  0  0  0
   30.1460   38.1530   83.5150 C   0  0  0  0  0  0  0  0  0  0  0  0
   30.2290   39.3620   84.1730 N   0  0  0  0  0  0  0  0  0  0  0  0
   31.4020   39.7770   84.9310 C   0  0  0  0  0  0  0  0  0  0  0  0
   31.7180   41.2670   84.7660 C   0  0  0  0  0  0  0  0  0  0  0  0
   31.4290   42.1090   85.9540 N   0  0  0  0  0  4  0  0  0  0  0  0
   32.2800   41.5710   87.0500 C   0  0  0  0  0  0  0  0  0  0  0  0
   32.0510   42.3760   88.3430 C   0  0  0  0  0  0  0  0  0  0  0  0
   30.6010   42.3320   88.6950 N   0  0  0  0  0  4  0  0  0  0  0  0
   29.7440   42.8690   87.5910 C   0  0  0  0  0  0  0  0  0  0  0  0
   29.9890   42.0190   86.3250 C   0  0  0  0  0  0  0  0  0  0  0  0
   28.8400   37.5140   83.3260 C   0  0  0  0  0  0  0  0  0  0  0  0
   27.5480   37.8750   83.6990 C   0  0  0  0  0  0  0  0  0  0  0  0
   27.1540   39.0970   84.4440 C   0  0  0  0  0  0  0  0  0  0  0  0
   27.0950   39.0840   85.8800 C   0  0  0  0  0  0  0  0  0  0  0  0
   26.6960   40.2680   86.5810 C   0  0  0  0  0  0  0  0  0  0  0  0
   26.3560   41.4600   85.8380 C   0  0  0  0  0  0  0  0  0  0  0  0
   26.4180   41.4770   84.3940 C   0  0  0  0  0  0  0  0  0  0  0  0
   26.8150   40.2910   83.6970 C   0  0  0  0  0  0  0  0  0  0  0  0
   24.4290   37.1700   84.2570 C   0  0  0  0  0  0  0  0  0  0  0  0
   23.0240   36.9570   84.3240 C   0  0  0  0  0  0  0  0  0  0  0  0
   21.3244   35.9132   83.4094 H   0  0  0  0  0  0  0  0  0  0  0  0
   22.7113   34.7905   81.6017 H   0  0  0  0  0  0  0  0  0  0  0  0
   25.2187   35.1699   81.5027 H   0  0  0  0  0  0  0  0  0  0  0  0
   32.0838   35.7455   81.9374 H   0  0  0  0  0  0  0  0  0  0  0  0
   32.3109   37.9611   83.1136 H   0  0  0  0  0  0  0  0  0  0  0  0
   29.4800   39.3510   84.8350 H   0  0  0  0  0  0  0  0  0  0  0  0
   31.2228   39.5715   85.9967 H   0  0  0  0  0  0  0  0  0  0  0  0
   32.2629   39.2109   84.5458 H   0  0  0  0  0  0  0  0  0  0  0  0
   32.7885   41.3641   84.5321 H   0  0  0  0  0  0  0  0  0  0  0  0
   31.0587   41.6323   83.9648 H   0  0  0  0  0  0  0  0  0  0  0  0
   31.6240   43.0720   85.7730 H   0  0  0  0  0  0  0  0  0  0  0  0
   32.0210   40.5167   87.2273 H   0  0  0  0  0  0  0  0  0  0  0  0
   33.3373   41.6532   86.7577 H   0  0  0  0  0  0  0  0  0  0  0  0
   32.6420   41.9366   89.1601 H   0  0  0  0  0  0  0  0  0  0  0  0
   32.3640   43.4194   88.1904 H   0  0  0  0  0  0  0  0  0  0  0  0
   30.3410   41.3820   88.8690 H   0  0  0  0  0  0  0  0  0  0  0  0
   30.4520   42.8860   89.5150 H   0  0  0  0  0  0  0  0  0  0  0  0
   28.6844   42.8077   87.8801 H   0  0  0  0  0  0  0  0  0  0  0  0
   29.9973   43.9212   87.3942 H   0  0  0  0  0  0  0  0  0  0  0  0
   29.7248   40.9706   86.5274 H   0  0  0  0  0  0  0  0  0  0  0  0
   29.3673   42.3939   85.4986 H   0  0  0  0  0  0  0  0  0  0  0  0
   27.3543   38.1715   86.4368 H   0  0  0  0  0  0  0  0  0  0  0  0
   26.6486   40.2698   87.6800 H   0  0  0  0  0  0  0  0  0  0  0  0
   26.0459   42.3664   86.3786 H   0  0  0  0  0  0  0  0  0  0  0  0
   26.1631   42.3906   83.8370 H   0  0  0  0  0  0  0  0  0  0  0  0
   26.8624   40.2865   82.5980 H   0  0  0  0  0  0  0  0  0  0  0  0
   24.9087   37.8336   84.9916 H   0  0  0  0  0  0  0  0  0  0  0  0
   22.4203   37.4499   85.1002 H   0  0  0  0  0  0  0  0  0  0  0  0
  1  2  2  0
  2  3  1  0
  3  4  2  0
  4  5  1  0
  5  6  1  0
  6  7  1  0
  7  8  2  0
  8  9  1  0
  9 10  2  0
 10 11  1  0
 11 12  1  0
 12 13  1  0
 13 14  1  0
 14 15  1  0
 15 16  1  0
 16 17  1  0
 17 18  1  0
 18 19  1  0
 19 20  1  0
 11 21  2  0
 21 22  1  0
 22 23  1  0
 23 24  2  0
 24 25  1  0
 25 26  2  0
 26 27  1  0
 27 28  2  0
  4 29  1  0
 29 30  2  0
 30  1  1  0
 22  5  2  0
 28 23  1  0
 21  7  1  0
 20 15  1  0
  1 31  1  0
  2 32  1  0
  3 33  1  0
  9 34  1  0
 10 35  1  0
 12 36  1  0
 13 37  1  0
 13 38  1  0
 14 39  1  0
 14 40  1  0
 15 41  1  0
 16 42  1  0
 16 43  1  0
 17 44  1  0
 17 45  1  0
 18 46  1  0
 18 47  1  0
 19 48  1  0
 19 49  1  0
 20 50  1  0
 20 51  1  0
 24 52  1  0
 25 53  1  0
 26 54  1  0
 27 55  1  0
 28 56  1  0
 29 57  1  0
 30 58  1  0
M  CHG  2  15   1  18   1
M  END
>  <meeko>  (25) 
{"free_energy": -10.887, "intermolecular_energy": -10.067, "internal_energy": -1.486}

$$$$

     RDKit          3D

 58 62  0  0  0  0  0  0  0  0999 V2000
   25.8830   35.7140   82.2630 C   0  0  0  0  0  0  0  0  0  0  0  0
   26.8390   36.7920   82.4030 C   0  0  0  0  0  0  0  0  0  0  0  0
   26.7240   37.7170   83.4950 C   0  0  0  0  0  0  0  0  0  0  0  0
   25.6510   37.5720   84.4400 C   0  0  0  0  0  0  0  0  0  0  0  0
   25.5690   38.5480   85.5750 C   0  0  0  0  0  0  0  0  0  0  0  0
   26.6990   38.9520   86.2580 O   0  0  0  0  0  0  0  0  0  0  0  0
   26.2660   39.8180   87.2100 C   0  0  0  0  0  0  0  0  0  0  0  0
   27.0430   40.4900   88.1440 N   0  0  0  0  0  0  0  0  0  0  0  0
   26.5100   41.3400   89.0580 C   0  0  0  0  0  0  0  0  0  0  0  0
   25.1140   41.5940   89.0730 C   0  0  0  0  0  0  0  0  0  0  0  0
   24.2600   40.9250   88.1230 C   0  0  0  0  0  0  0  0  0  0  0  0
   22.8980   41.1430   88.1030 N   0  0  0  0  0  0  0  0  0  0  0  0
   22.2550   42.0780   87.1900 C   0  0  0  0  0  0  0  0  0  0  0  0
   22.9800   43.4250   87.1130 C   0  0  0  0  0  0  0  0  0  0  0  0
   24.2840   43.4000   86.4040 N   0  0  0  0  0  4  0  0  0  0  0  0
   24.7530   44.8120   86.3650 C   0  0  0  0  0  0  0  0  0  0  0  0
   26.1080   44.9010   85.6370 C   0  0  0  0  0  0  0  0  0  0  0  0
   25.9640   44.3260   84.2660 N   0  0  0  0  0  4  0  0  0  0  0  0
   25.4880   42.9070   84.3050 C   0  0  0  0  0  0  0  0  0  0  0  0
   24.1210   42.8700   85.0210 C   0  0  0  0  0  0  0  0  0  0  0  0
   24.8650   40.0050   87.1550 C   0  0  0  0  0  0  0  0  0  0  0  0
   24.3320   39.2220   86.1350 C   0  0  0  0  0  0  0  0  0  0  0  0
   22.9010   39.1230   85.7540 C   0  0  0  0  0  0  0  0  0  0  0  0
   22.4170   39.7840   84.5730 C   0  0  0  0  0  0  0  0  0  0  0  0
   21.0290   39.6910   84.2310 C   0  0  0  0  0  0  0  0  0  0  0  0
   20.1320   38.9370   85.0760 C   0  0  0  0  0  0  0  0  0  0  0  0
   20.6160   38.2680   86.2630 C   0  0  0  0  0  0  0  0  0  0  0  0
   22.0040   38.3650   86.6020 C   0  0  0  0  0  0  0  0  0  0  0  0
   24.7010   36.4850   84.2740 C   0  0  0  0  0  0  0  0  0  0  0  0
   24.8100   35.5630   83.1970 C   0  0  0  0  0  0  0  0  0  0  0  0
   25.9827   35.0033   81.4294 H   0  0  0  0  0  0  0  0  0  0  0  0
   27.6539   36.9025   81.6724 H   0  0  0  0  0  0  0  0  0  0  0  0
   27.4535   38.5326   83.6078 H   0  0  0  0  0  0  0  0  0  0  0  0
   27.1638   41.8348   89.7913 H   0  0  0  0  0  0  0  0  0  0  0  0
   24.6864   42.2961   89.8039 H   0  0  0  0  0  0  0  0  0  0  0  0
   22.6740   41.4750   89.0190 H   0  0  0  0  0  0  0  0  0  0  0  0
   22.2358   41.6311   86.1850 H   0  0  0  0  0  0  0  0  0  0  0  0
   21.2408   42.2687   87.5709 H   0  0  0  0  0  0  0  0  0  0  0  0
   22.3225   44.1363   86.5917 H   0  0  0  0  0  0  0  0  0  0  0  0
   23.2019   43.7126   88.1513 H   0  0  0  0  0  0  0  0  0  0  0  0
   24.9390   42.8050   86.8690 H   0  0  0  0  0  0  0  0  0  0  0  0
   24.0127   45.4265   85.8318 H   0  0  0  0  0  0  0  0  0  0  0  0
   24.8732   45.1796   87.3948 H   0  0  0  0  0  0  0  0  0  0  0  0
   26.4188   45.9537   85.5643 H   0  0  0  0  0  0  0  0  0  0  0  0
   26.8681   44.3372   86.1977 H   0  0  0  0  0  0  0  0  0  0  0  0
   25.3010   44.8730   83.7570 H   0  0  0  0  0  0  0  0  0  0  0  0
   26.8550   44.3530   83.8120 H   0  0  0  0  0  0  0  0  0  0  0  0
   25.3807   42.5230   83.2798 H   0  0  0  0  0  0  0  0  0  0  0  0
   26.2136   42.2801   84.8440 H   0  0  0  0  0  0  0  0  0  0  0  0
   23.3993   43.4913   84.4705 H   0  0  0  0  0  0  0  0  0  0  0  0
   23.7498   41.8353   85.0606 H   0  0  0  0  0  0  0  0  0  0  0  0
   23.1073   40.3570   83.9365 H   0  0  0  0  0  0  0  0  0  0  0  0
   20.6478   40.1916   83.3288 H   0  0  0  0  0  0  0  0  0  0  0  0
   19.0660   38.8709   84.8127 H   0  0  0  0  0  0  0  0  0  0  0  0
   19.9267   37.6918   86.8977 H   0  0  0  0  0  0  0  0  0  0  0  0
   22.3878   37.8654   87.5037 H   0  0  0  0  0  0  0  0  0  0  0  0
   23.8797   36.3730   84.9972 H   0  0  0  0  0  0  0  0  0  0  0  0
   24.0811   34.7469   83.0839 H   0  0  0  0  0  0  0  0  0  0  0  0
  1  2  2  0
  2  3  1  0
  3  4  2  0
  4  5  1  0
  5  6  1  0
  6  7  1  0
  7  8  2  0
  8  9  1  0
  9 10  2  0
 10 11  1  0
 11 12  1  0
 12 13  1  0
 13 14  1  0
 14 15  1  0
 15 16  1  0
 16 17  1  0
 17 18  1  0
 18 19  1  0
 19 20  1  0
 11 21  2  0
 21 22  1  0
 22 23  1  0
 23 24  2  0
 24 25  1  0
 25 26  2  0
 26 27  1  0
 27 28  2  0
  4 29  1  0
 29 30  2  0
 30  1  1  0
 22  5  2  0
 28 23  1  0
 21  7  1  0
 20 15  1  0
  1 31  1  0
  2 32  1  0
  3 33  1  0
  9 34  1  0
 10 35  1  0
 12 36  1  0
 13 37  1  0
 13 38  1  0
 14 39  1  0
 14 40  1  0
 15 41  1  0
 16 42  1  0
 16 43  1  0
 17 44  1  0
 17 45  1  0
 18 46  1  0
 18 47  1  0
 19 48  1  0
 19 49  1  0
 20 50  1  0
 20 51  1  0
 24 52  1  0
 25 53  1  0
 26 54  1  0
 27 55  1  0
 28 56  1  0
 29 57  1  0
 30 58  1  0
M  CHG  2  15   1  18   1
M  END
>  <meeko>  (26) 
{"free_energy": -10.884, "intermolecular_energy": -10.56, "internal_energy": -0.99}

$$$$

     RDKit          3D

 58 62  0  0  0  0  0  0  0  0999 V2000
   25.8730   35.6600   82.8790 C   0  0  0  0  0  0  0  0  0  0  0  0
   26.8620   36.7110   82.7740 C   0  0  0  0  0  0  0  0  0  0  0  0
   26.5630   38.0300   83.2580 C   0  0  0  0  0  0  0  0  0  0  0  0
   25.2770   38.3010   83.8380 C   0  0  0  0  0  0  0  0  0  0  0  0
   25.0040   39.6840   84.3440 C   0  0  0  0  0  0  0  0  0  0  0  0
   25.9050   40.7120   84.1470 O   0  0  0  0  0  0  0  0  0  0  0  0
   25.3520   41.8060   84.7300 C   0  0  0  0  0  0  0  0  0  0  0  0
   25.8900   43.0850   84.7880 N   0  0  0  0  0  0  0  0  0  0  0  0
   25.2530   44.1160   85.3980 C   0  0  0  0  0  0  0  0  0  0  0  0
   23.9770   43.9230   85.9890 C   0  0  0  0  0  0  0  0  0  0  0  0
   23.3700   42.6150   85.9560 C   0  0  0  0  0  0  0  0  0  0  0  0
   22.1320   42.3840   86.5180 N   0  0  0  0  0  0  0  0  0  0  0  0
   21.9490   42.0090   87.9140 C   0  0  0  0  0  0  0  0  0  0  0  0
   22.1620   43.1820   88.8750 C   0  0  0  0  0  0  0  0  0  0  0  0
   23.2600   43.0020   89.8570 N   0  0  0  0  0  4  0  0  0  0  0  0
   24.1900   44.1440   89.6430 C   0  0  0  0  0  0  0  0  0  0  0  0
   25.3810   44.0490   90.6150 C   0  0  0  0  0  0  0  0  0  0  0  0
   26.0640   42.7350   90.4240 N   0  0  0  0  0  4  0  0  0  0  0  0
   25.1280   41.5860   90.6360 C   0  0  0  0  0  0  0  0  0  0  0  0
   23.9660   41.7100   89.6260 C   0  0  0  0  0  0  0  0  0  0  0  0
   24.0880   41.5200   85.2980 C   0  0  0  0  0  0  0  0  0  0  0  0
   23.7860   40.1760   85.1010 C   0  0  0  0  0  0  0  0  0  0  0  0
   22.5590   39.4720   85.5500 C   0  0  0  0  0  0  0  0  0  0  0  0
   21.3570   39.5340   84.7650 C   0  0  0  0  0  0  0  0  0  0  0  0
   20.1780   38.8620   85.2240 C   0  0  0  0  0  0  0  0  0  0  0  0
   20.2090   38.1330   86.4710 C   0  0  0  0  0  0  0  0  0  0  0  0
   21.4170   38.0660   87.2620 C   0  0  0  0  0  0  0  0  0  0  0  0
   22.5930   38.7400   86.8010 C   0  0  0  0  0  0  0  0  0  0  0  0
   24.2990   37.2290   83.9260 C   0  0  0  0  0  0  0  0  0  0  0  0
   24.5880   35.9200   83.4530 C   0  0  0  0  0  0  0  0  0  0  0  0
   26.1114   34.6502   82.5137 H   0  0  0  0  0  0  0  0  0  0  0  0
   27.8430   36.4999   82.3234 H   0  0  0  0  0  0  0  0  0  0  0  0
   27.3155   38.8290   83.1848 H   0  0  0  0  0  0  0  0  0  0  0  0
   25.7283   45.1074   85.4348 H   0  0  0  0  0  0  0  0  0  0  0  0
   23.4552   44.7643   86.4684 H   0  0  0  0  0  0  0  0  0  0  0  0
   21.7430   41.6290   85.9910 H   0  0  0  0  0  0  0  0  0  0  0  0
   20.9251   41.6287   88.0447 H   0  0  0  0  0  0  0  0  0  0  0  0
   22.7016   41.2433   88.1532 H   0  0  0  0  0  0  0  0  0  0  0  0
   22.3847   44.0771   88.2756 H   0  0  0  0  0  0  0  0  0  0  0  0
   21.2365   43.2668   89.4635 H   0  0  0  0  0  0  0  0  0  0  0  0
   22.9110   42.9800   90.7940 H   0  0  0  0  0  0  0  0  0  0  0  0
   24.5626   44.1203   88.6083 H   0  0  0  0  0  0  0  0  0  0  0  0
   23.6510   45.0852   89.8264 H   0  0  0  0  0  0  0  0  0  0  0  0
   26.0893   44.8654   90.4106 H   0  0  0  0  0  0  0  0  0  0  0  0
   25.0212   44.1325   91.6511 H   0  0  0  0  0  0  0  0  0  0  0  0
   26.4190   42.6910   89.4900 H   0  0  0  0  0  0  0  0  0  0  0  0
   26.8130   42.6640   91.0820 H   0  0  0  0  0  0  0  0  0  0  0  0
   25.6614   40.6377   90.4739 H   0  0  0  0  0  0  0  0  0  0  0  0
   24.7378   41.6016   91.6643 H   0  0  0  0  0  0  0  0  0  0  0  0
   24.3639   41.6850   88.6008 H   0  0  0  0  0  0  0  0  0  0  0  0
   23.2647   40.8733   89.7608 H   0  0  0  0  0  0  0  0  0  0  0  0
   21.3423   40.0936   83.8181 H   0  0  0  0  0  0  0  0  0  0  0  0
   19.2532   38.9009   84.6297 H   0  0  0  0  0  0  0  0  0  0  0  0
   19.3009   37.6219   86.8233 H   0  0  0  0  0  0  0  0  0  0  0  0
   21.4326   37.5036   88.2073 H   0  0  0  0  0  0  0  0  0  0  0  0
   23.5189   38.7026   87.3937 H   0  0  0  0  0  0  0  0  0  0  0  0
   23.3133   37.4354   84.3685 H   0  0  0  0  0  0  0  0  0  0  0  0
   23.8365   35.1202   83.5269 H   0  0  0  0  0  0  0  0  0  0  0  0
  1  2  2  0
  2  3  1  0
  3  4  2  0
  4  5  1  0
  5  6  1  0
  6  7  1  0
  7  8  2  0
  8  9  1  0
  9 10  2  0
 10 11  1  0
 11 12  1  0
 12 13  1  0
 13 14  1  0
 14 15  1  0
 15 16  1  0
 16 17  1  0
 17 18  1  0
 18 19  1  0
 19 20  1  0
 11 21  2  0
 21 22  1  0
 22 23  1  0
 23 24  2  0
 24 25  1  0
 25 26  2  0
 26 27  1  0
 27 28  2  0
  4 29  1  0
 29 30  2  0
 30  1  1  0
 22  5  2  0
 28 23  1  0
 21  7  1  0
 20 15  1  0
  1 31  1  0
  2 32  1  0
  3 33  1  0
  9 34  1  0
 10 35  1  0
 12 36  1  0
 13 37  1  0
 13 38  1  0
 14 39  1  0
 14 40  1  0
 15 41  1  0
 16 42  1  0
 16 43  1  0
 17 44  1  0
 17 45  1  0
 18 46  1  0
 18 47  1  0
 19 48  1  0
 19 49  1  0
 20 50  1  0
 20 51  1  0
 24 52  1  0
 25 53  1  0
 26 54  1  0
 27 55  1  0
 28 56  1  0
 29 57  1  0
 30 58  1  0
M  CHG  2  15   1  18   1
M  END
>  <meeko>  (27) 
{"free_energy": -10.763, "intermolecular_energy": -9.915, "internal_energy": -1.471}

$$$$

     RDKit          3D

 58 62  0  0  0  0  0  0  0  0999 V2000
   32.0420   37.3990   82.8490 C   0  0  0  0  0  0  0  0  0  0  0  0
   30.9490   36.9370   83.6780 C   0  0  0  0  0  0  0  0  0  0  0  0
   29.8510   37.8140   83.9750 C   0  0  0  0  0  0  0  0  0  0  0  0
   29.8490   39.1530   83.4530 C   0  0  0  0  0  0  0  0  0  0  0  0
   28.6820   40.0360   83.7720 C   0  0  0  0  0  0  0  0  0  0  0  0
   28.8530   41.3760   84.0620 O   0  0  0  0  0  0  0  0  0  0  0  0
   27.6090   41.8640   84.3040 C   0  0  0  0  0  0  0  0  0  0  0  0
   27.2740   43.1690   84.6370 N   0  0  0  0  0  0  0  0  0  0  0  0
   25.9920   43.5580   84.8600 C   0  0  0  0  0  0  0  0  0  0  0  0
   24.9290   42.6280   84.7340 C   0  0  0  0  0  0  0  0  0  0  0  0
   25.2200   41.2580   84.3880 C   0  0  0  0  0  0  0  0  0  0  0  0
   24.2150   40.3220   84.2550 N   0  0  0  0  0  0  0  0  0  0  0  0
   23.0330   40.2960   85.1070 C   0  0  0  0  0  0  0  0  0  0  0  0
   21.7370   40.0970   84.3160 C   0  0  0  0  0  0  0  0  0  0  0  0
   20.9640   38.8790   84.6670 N   0  0  0  0  0  4  0  0  0  0  0  0
   20.3890   39.1350   86.0150 C   0  0  0  0  0  0  0  0  0  0  0  0
   19.5670   37.9200   86.4820 C   0  0  0  0  0  0  0  0  0  0  0  0
   20.4380   36.7080   86.4730 N   0  0  0  0  0  4  0  0  0  0  0  0
   21.0210   36.4510   85.1170 C   0  0  0  0  0  0  0  0  0  0  0  0
   21.8530   37.6840   84.7020 C   0  0  0  0  0  0  0  0  0  0  0  0
   26.6150   40.8680   84.1640 C   0  0  0  0  0  0  0  0  0  0  0  0
   27.2150   39.6580   83.8260 C   0  0  0  0  0  0  0  0  0  0  0  0
   26.5250   38.3650   83.5970 C   0  0  0  0  0  0  0  0  0  0  0  0
   25.8830   37.6810   84.6860 C   0  0  0  0  0  0  0  0  0  0  0  0
   25.2360   36.4250   84.4480 C   0  0  0  0  0  0  0  0  0  0  0  0
   25.2380   35.8590   83.1190 C   0  0  0  0  0  0  0  0  0  0  0  0
   25.8800   36.5450   82.0200 C   0  0  0  0  0  0  0  0  0  0  0  0
   26.5270   37.8000   82.2620 C   0  0  0  0  0  0  0  0  0  0  0  0
   30.9610   39.5950   82.6290 C   0  0  0  0  0  0  0  0  0  0  0  0
   32.0500   38.7320   82.3270 C   0  0  0  0  0  0  0  0  0  0  0  0
   32.8750   36.7188   82.6177 H   0  0  0  0  0  0  0  0  0  0  0  0
   30.9593   35.9135   84.0808 H   0  0  0  0  0  0  0  0  0  0  0  0
   29.0159   37.4626   84.5988 H   0  0  0  0  0  0  0  0  0  0  0  0
   25.7772   44.5999   85.1398 H   0  0  0  0  0  0  0  0  0  0  0  0
   23.8899   42.9489   84.8989 H   0  0  0  0  0  0  0  0  0  0  0  0
   24.6610   39.4390   84.4000 H   0  0  0  0  0  0  0  0  0  0  0  0
   23.1362   39.4703   85.8265 H   0  0  0  0  0  0  0  0  0  0  0  0
   22.9668   41.2709   85.6123 H   0  0  0  0  0  0  0  0  0  0  0  0
   21.0931   40.9713   84.4918 H   0  0  0  0  0  0  0  0  0  0  0  0
   22.0362   39.9767   83.2643 H   0  0  0  0  0  0  0  0  0  0  0  0
   20.2520   38.6930   83.9900 H   0  0  0  0  0  0  0  0  0  0  0  0
   21.2052   39.3178   86.7294 H   0  0  0  0  0  0  0  0  0  0  0  0
   19.7310   40.0150   85.9633 H   0  0  0  0  0  0  0  0  0  0  0  0
   19.1937   38.0977   87.5014 H   0  0  0  0  0  0  0  0  0  0  0  0
   18.7135   37.7678   85.8050 H   0  0  0  0  0  0  0  0  0  0  0  0
   21.1860   36.8450   87.1220 H   0  0  0  0  0  0  0  0  0  0  0  0
   19.8900   35.9160   86.7410 H   0  0  0  0  0  0  0  0  0  0  0  0
   21.6675   35.5617   85.1531 H   0  0  0  0  0  0  0  0  0  0  0  0
   20.2169   36.2748   84.3873 H   0  0  0  0  0  0  0  0  0  0  0  0
   22.6607   37.8463   85.4309 H   0  0  0  0  0  0  0  0  0  0  0  0
   22.2926   37.5183   83.7074 H   0  0  0  0  0  0  0  0  0  0  0  0
   25.8884   38.1188   85.6951 H   0  0  0  0  0  0  0  0  0  0  0  0
   24.7399   35.8940   85.2738 H   0  0  0  0  0  0  0  0  0  0  0  0
   24.7441   34.8924   82.9405 H   0  0  0  0  0  0  0  0  0  0  0  0
   25.8717   36.1085   81.0103 H   0  0  0  0  0  0  0  0  0  0  0  0
   27.0235   38.3330   81.4378 H   0  0  0  0  0  0  0  0  0  0  0  0
   30.9605   40.6200   82.2299 H   0  0  0  0  0  0  0  0  0  0  0  0
   32.8849   39.0829   81.7026 H   0  0  0  0  0  0  0  0  0  0  0  0
  1  2  2  0
  2  3  1  0
  3  4  2  0
  4  5  1  0
  5  6  1  0
  6  7  1  0
  7  8  2  0
  8  9  1  0
  9 10  2  0
 10 11  1  0
 11 12  1  0
 12 13  1  0
 13 14  1  0
 14 15  1  0
 15 16  1  0
 16 17  1  0
 17 18  1  0
 18 19  1  0
 19 20  1  0
 11 21  2  0
 21 22  1  0
 22 23  1  0
 23 24  2  0
 24 25  1  0
 25 26  2  0
 26 27  1  0
 27 28  2  0
  4 29  1  0
 29 30  2  0
 30  1  1  0
 22  5  2  0
 28 23  1  0
 21  7  1  0
 20 15  1  0
  1 31  1  0
  2 32  1  0
  3 33  1  0
  9 34  1  0
 10 35  1  0
 12 36  1  0
 13 37  1  0
 13 38  1  0
 14 39  1  0
 14 40  1  0
 15 41  1  0
 16 42  1  0
 16 43  1  0
 17 44  1  0
 17 45  1  0
 18 46  1  0
 18 47  1  0
 19 48  1  0
 19 49  1  0
 20 50  1  0
 20 51  1  0
 24 52  1  0
 25 53  1  0
 26 54  1  0
 27 55  1  0
 28 56  1  0
 29 57  1  0
 30 58  1  0
M  CHG  2  15   1  18   1
M  END
>  <meeko>  (28) 
{"free_energy": -10.73, "intermolecular_energy": -10.081, "internal_energy": -1.261}

$$$$

     RDKit          3D

 58 62  0  0  0  0  0  0  0  0999 V2000
   25.3270   35.4020   83.1120 C   0  0  0  0  0  0  0  0  0  0  0  0
   26.1440   36.2130   82.2350 C   0  0  0  0  0  0  0  0  0  0  0  0
   26.4100   37.5850   82.5640 C   0  0  0  0  0  0  0  0  0  0  0  0
   25.8530   38.1500   83.7620 C   0  0  0  0  0  0  0  0  0  0  0  0
   26.1620   39.5810   84.0810 C   0  0  0  0  0  0  0  0  0  0  0  0
   27.4220   40.1070   83.8730 O   0  0  0  0  0  0  0  0  0  0  0  0
   27.3510   41.4050   84.2690 C   0  0  0  0  0  0  0  0  0  0  0  0
   28.3730   42.3430   84.2460 N   0  0  0  0  0  0  0  0  0  0  0  0
   28.1980   43.6220   84.6660 C   0  0  0  0  0  0  0  0  0  0  0  0
   26.9300   44.0570   85.1290 C   0  0  0  0  0  0  0  0  0  0  0  0
   25.8310   43.1240   85.1720 C   0  0  0  0  0  0  0  0  0  0  0  0
   24.5820   43.5060   85.6160 N   0  0  0  0  0  0  0  0  0  0  0  0
   24.3730   44.3040   86.8180 C   0  0  0  0  0  0  0  0  0  0  0  0
   24.9630   43.6510   88.0720 C   0  0  0  0  0  0  0  0  0  0  0  0
   23.9800   43.3280   89.1370 N   0  0  0  0  0  4  0  0  0  0  0  0
   24.2510   41.9180   89.5280 C   0  0  0  0  0  0  0  0  0  0  0  0
   23.2730   41.4760   90.6330 C   0  0  0  0  0  0  0  0  0  0  0  0
   21.8730   41.6580   90.1470 N   0  0  0  0  0  4  0  0  0  0  0  0
   21.6010   43.0750   89.7500 C   0  0  0  0  0  0  0  0  0  0  0  0
   22.5870   43.4660   88.6270 C   0  0  0  0  0  0  0  0  0  0  0  0
   26.0550   41.7480   84.7220 C   0  0  0  0  0  0  0  0  0  0  0  0
   25.2250   40.6330   84.6400 C   0  0  0  0  0  0  0  0  0  0  0  0
   23.7930   40.5690   85.0260 C   0  0  0  0  0  0  0  0  0  0  0  0
   23.4190   40.2400   86.3740 C   0  0  0  0  0  0  0  0  0  0  0  0
   22.0310   40.1670   86.7230 C   0  0  0  0  0  0  0  0  0  0  0  0
   21.0250   40.4210   85.7180 C   0  0  0  0  0  0  0  0  0  0  0  0
   21.3980   40.7550   84.3620 C   0  0  0  0  0  0  0  0  0  0  0  0
   22.7860   40.8260   84.0160 C   0  0  0  0  0  0  0  0  0  0  0  0
   25.0310   37.3170   84.6230 C   0  0  0  0  0  0  0  0  0  0  0  0
   24.7660   35.9570   84.3060 C   0  0  0  0  0  0  0  0  0  0  0  0
   25.1353   34.3489   82.8585 H   0  0  0  0  0  0  0  0  0  0  0  0
   26.5617   35.7777   81.3152 H   0  0  0  0  0  0  0  0  0  0  0  0
   27.0371   38.2005   81.9023 H   0  0  0  0  0  0  0  0  0  0  0  0
   29.0441   44.3247   84.6471 H   0  0  0  0  0  0  0  0  0  0  0  0
   26.7858   45.0983   85.4529 H   0  0  0  0  0  0  0  0  0  0  0  0
   24.0900   42.6510   85.7810 H   0  0  0  0  0  0  0  0  0  0  0  0
   24.8486   45.2856   86.6757 H   0  0  0  0  0  0  0  0  0  0  0  0
   23.2876   44.3958   86.9709 H   0  0  0  0  0  0  0  0  0  0  0  0
   25.4564   42.7157   87.7689 H   0  0  0  0  0  0  0  0  0  0  0  0
   25.6525   44.3900   88.5061 H   0  0  0  0  0  0  0  0  0  0  0  0
   24.0690   43.9510   89.9140 H   0  0  0  0  0  0  0  0  0  0  0  0
   24.1261   41.2669   88.6502 H   0  0  0  0  0  0  0  0  0  0  0  0
   25.2805   41.8420   89.9079 H   0  0  0  0  0  0  0  0  0  0  0  0
   23.4444   40.4166   90.8746 H   0  0  0  0  0  0  0  0  0  0  0  0
   23.4341   42.0837   91.5356 H   0  0  0  0  0  0  0  0  0  0  0  0
   21.7310   41.0690   89.3520 H   0  0  0  0  0  0  0  0  0  0  0  0
   21.2430   41.4040   90.8810 H   0  0  0  0  0  0  0  0  0  0  0  0
   20.5674   43.1664   89.3850 H   0  0  0  0  0  0  0  0  0  0  0  0
   21.7315   43.7411   90.6156 H   0  0  0  0  0  0  0  0  0  0  0  0
   22.4432   42.8020   87.7619 H   0  0  0  0  0  0  0  0  0  0  0  0
   22.4052   44.5057   88.3173 H   0  0  0  0  0  0  0  0  0  0  0  0
   24.1921   40.0457   87.1320 H   0  0  0  0  0  0  0  0  0  0  0  0
   21.7328   39.9185   87.7522 H   0  0  0  0  0  0  0  0  0  0  0  0
   19.9605   40.3594   85.9883 H   0  0  0  0  0  0  0  0  0  0  0  0
   20.6249   40.9523   83.6048 H   0  0  0  0  0  0  0  0  0  0  0  0
   23.0865   41.0747   82.9875 H   0  0  0  0  0  0  0  0  0  0  0  0
   24.6043   37.7484   85.5405 H   0  0  0  0  0  0  0  0  0  0  0  0
   24.1397   35.3408   84.9679 H   0  0  0  0  0  0  0  0  0  0  0  0
  1  2  2  0
  2  3  1  0
  3  4  2  0
  4  5  1  0
  5  6  1  0
  6  7  1  0
  7  8  2  0
  8  9  1  0
  9 10  2  0
 10 11  1  0
 11 12  1  0
 12 13  1  0
 13 14  1  0
 14 15  1  0
 15 16  1  0
 16 17  1  0
 17 18  1  0
 18 19  1  0
 19 20  1  0
 11 21  2  0
 21 22  1  0
 22 23  1  0
 23 24  2  0
 24 25  1  0
 25 26  2  0
 26 27  1  0
 27 28  2  0
  4 29  1  0
 29 30  2  0
 30  1  1  0
 22  5  2  0
 28 23  1  0
 21  7  1  0
 20 15  1  0
  1 31  1  0
  2 32  1  0
  3 33  1  0
  9 34  1  0
 10 35  1  0
 12 36  1  0
 13 37  1  0
 13 38  1  0
 14 39  1  0
 14 40  1  0
 15 41  1  0
 16 42  1  0
 16 43  1  0
 17 44  1  0
 17 45  1  0
 18 46  1  0
 18 47  1  0
 19 48  1  0
 19 49  1  0
 20 50  1  0
 20 51  1  0
 24 52  1  0
 25 53  1  0
 26 54  1  0
 27 55  1  0
 28 56  1  0
 29 57  1  0
 30 58  1  0
M  CHG  2  15   1  18   1
M  END
>  <meeko>  (29) 
{"free_energy": -10.642, "intermolecular_energy": -9.452, "internal_energy": -1.771}

$$$$

     RDKit          3D

 58 62  0  0  0  0  0  0  0  0999 V2000
   29.5250   36.9740   82.9320 C   0  0  0  0  0  0  0  0  0  0  0  0
   28.4800   36.1340   82.3880 C   0  0  0  0  0  0  0  0  0  0  0  0
   27.1130   36.3430   82.7790 C   0  0  0  0  0  0  0  0  0  0  0  0
   26.7930   37.3820   83.7180 C   0  0  0  0  0  0  0  0  0  0  0  0
   25.3560   37.5810   84.0930 C   0  0  0  0  0  0  0  0  0  0  0  0
   24.4080   36.6060   83.8470 O   0  0  0  0  0  0  0  0  0  0  0  0
   23.2320   37.1110   84.3010 C   0  0  0  0  0  0  0  0  0  0  0  0
   21.9900   36.4920   84.2710 N   0  0  0  0  0  0  0  0  0  0  0  0
   20.8690   37.0850   84.7540 C   0  0  0  0  0  0  0  0  0  0  0  0
   20.9360   38.3760   85.3390 C   0  0  0  0  0  0  0  0  0  0  0  0
   22.2010   39.0650   85.3970 C   0  0  0  0  0  0  0  0  0  0  0  0
   22.3100   40.3210   85.9560 N   0  0  0  0  0  0  0  0  0  0  0  0
   21.9490   40.6110   87.3380 C   0  0  0  0  0  0  0  0  0  0  0  0
   22.9270   41.5760   88.0160 C   0  0  0  0  0  0  0  0  0  0  0  0
   22.3100   42.5380   88.9630 N   0  0  0  0  0  4  0  0  0  0  0  0
   20.8540   42.2310   88.9660 C   0  0  0  0  0  0  0  0  0  0  0  0
   20.1120   43.1850   89.9200 C   0  0  0  0  0  0  0  0  0  0  0  0
   20.3810   44.5950   89.5070 N   0  0  0  0  0  4  0  0  0  0  0  0
   21.8460   44.9030   89.5010 C   0  0  0  0  0  0  0  0  0  0  0  0
   22.5430   43.9400   88.5160 C   0  0  0  0  0  0  0  0  0  0  0  0
   23.3920   38.4020   84.8580 C   0  0  0  0  0  0  0  0  0  0  0  0
   24.7260   38.7850   84.7640 C   0  0  0  0  0  0  0  0  0  0  0  0
   25.3090   40.0700   85.2240 C   0  0  0  0  0  0  0  0  0  0  0  0
   25.3280   41.2130   84.3520 C   0  0  0  0  0  0  0  0  0  0  0  0
   25.9100   42.4390   84.8080 C   0  0  0  0  0  0  0  0  0  0  0  0
   26.4740   42.5150   86.1360 C   0  0  0  0  0  0  0  0  0  0  0  0
   26.4540   41.3690   87.0170 C   0  0  0  0  0  0  0  0  0  0  0  0
   25.8720   40.1440   86.5570 C   0  0  0  0  0  0  0  0  0  0  0  0
   27.8620   38.2090   84.2540 C   0  0  0  0  0  0  0  0  0  0  0  0
   29.2160   38.0110   83.8690 C   0  0  0  0  0  0  0  0  0  0  0  0
   30.5682   36.8139   82.6221 H   0  0  0  0  0  0  0  0  0  0  0  0
   28.7320   35.3352   81.6750 H   0  0  0  0  0  0  0  0  0  0  0  0
   26.3157   35.7106   82.3614 H   0  0  0  0  0  0  0  0  0  0  0  0
   19.9033   36.5621   84.6917 H   0  0  0  0  0  0  0  0  0  0  0  0
   20.0292   38.8477   85.7454 H   0  0  0  0  0  0  0  0  0  0  0  0
   21.7170   40.9060   85.4030 H   0  0  0  0  0  0  0  0  0  0  0  0
   20.9450   41.0601   87.3523 H   0  0  0  0  0  0  0  0  0  0  0  0
   21.9792   39.6627   87.8946 H   0  0  0  0  0  0  0  0  0  0  0  0
   23.6655   40.9785   88.5706 H   0  0  0  0  0  0  0  0  0  0  0  0
   23.3679   42.1808   87.2099 H   0  0  0  0  0  0  0  0  0  0  0  0
   22.7080   42.4530   89.8770 H   0  0  0  0  0  0  0  0  0  0  0  0
   20.4550   42.3519   87.9481 H   0  0  0  0  0  0  0  0  0  0  0  0
   20.7059   41.1956   89.3066 H   0  0  0  0  0  0  0  0  0  0  0  0
   19.0311   42.9869   89.8721 H   0  0  0  0  0  0  0  0  0  0  0  0
   20.4636   43.0268   90.9502 H   0  0  0  0  0  0  0  0  0  0  0  0
   20.0200   44.7330   88.5850 H   0  0  0  0  0  0  0  0  0  0  0  0
   19.9260   45.2100   90.1520 H   0  0  0  0  0  0  0  0  0  0  0  0
   22.0056   45.9428   89.1795 H   0  0  0  0  0  0  0  0  0  0  0  0
   22.2626   44.7768   90.5112 H   0  0  0  0  0  0  0  0  0  0  0  0
   22.1273   44.0795   87.5072 H   0  0  0  0  0  0  0  0  0  0  0  0
   23.6228   44.1486   88.4931 H   0  0  0  0  0  0  0  0  0  0  0  0
   24.8984   41.1460   83.3416 H   0  0  0  0  0  0  0  0  0  0  0  0
   25.9277   43.3200   84.1496 H   0  0  0  0  0  0  0  0  0  0  0  0
   26.9245   43.4572   86.4813 H   0  0  0  0  0  0  0  0  0  0  0  0
   26.8807   41.4371   88.0286 H   0  0  0  0  0  0  0  0  0  0  0  0
   25.8524   39.2618   87.2138 H   0  0  0  0  0  0  0  0  0  0  0  0
   27.6178   39.0050   84.9729 H   0  0  0  0  0  0  0  0  0  0  0  0
   30.0135   38.6445   84.2845 H   0  0  0  0  0  0  0  0  0  0  0  0
  1  2  2  0
  2  3  1  0
  3  4  2  0
  4  5  1  0
  5  6  1  0
  6  7  1  0
  7  8  2  0
  8  9  1  0
  9 10  2  0
 10 11  1  0
 11 12  1  0
 12 13  1  0
 13 14  1  0
 14 15  1  0
 15 16  1  0
 16 17  1  0
 17 18  1  0
 18 19  1  0
 19 20  1  0
 11 21  2  0
 21 22  1  0
 22 23  1  0
 23 24  2  0
 24 25  1  0
 25 26  2  0
 26 27  1  0
 27 28  2  0
  4 29  1  0
 29 30  2  0
 30  1  1  0
 22  5  2  0
 28 23  1  0
 21  7  1  0
 20 15  1  0
  1 31  1  0
  2 32  1  0
  3 33  1  0
  9 34  1  0
 10 35  1  0
 12 36  1  0
 13 37  1  0
 13 38  1  0
 14 39  1  0
 14 40  1  0
 15 41  1  0
 16 42  1  0
 16 43  1  0
 17 44  1  0
 17 45  1  0
 18 46  1  0
 18 47  1  0
 19 48  1  0
 19 49  1  0
 20 50  1  0
 20 51  1  0
 24 52  1  0
 25 53  1  0
 26 54  1  0
 27 55  1  0
 28 56  1  0
 29 57  1  0
 30 58  1  0
M  CHG  2  15   1  18   1
M  END
>  <meeko>  (30) 
{"free_energy": -10.604, "intermolecular_energy": -9.72, "internal_energy": -1.451}

$$$$

     RDKit          3D

 58 62  0  0  0  0  0  0  0  0999 V2000
   19.8450   36.7750   85.6790 C   0  0  0  0  0  0  0  0  0  0  0  0
   20.1090   37.4300   84.4160 C   0  0  0  0  0  0  0  0  0  0  0  0
   21.2060   38.3500   84.2990 C   0  0  0  0  0  0  0  0  0  0  0  0
   22.0320   38.6210   85.4420 C   0  0  0  0  0  0  0  0  0  0  0  0
   23.1760   39.5750   85.2810 C   0  0  0  0  0  0  0  0  0  0  0  0
   23.1060   40.8680   85.7600 O   0  0  0  0  0  0  0  0  0  0  0  0
   24.2930   41.4460   85.4420 C   0  0  0  0  0  0  0  0  0  0  0  0
   24.6910   42.7460   85.7220 N   0  0  0  0  0  0  0  0  0  0  0  0
   25.9070   43.2290   85.3590 C   0  0  0  0  0  0  0  0  0  0  0  0
   26.8400   42.3950   84.6900 C   0  0  0  0  0  0  0  0  0  0  0  0
   26.4790   41.0350   84.3760 C   0  0  0  0  0  0  0  0  0  0  0  0
   27.3560   40.1910   83.7270 N   0  0  0  0  0  0  0  0  0  0  0  0
   28.7650   40.5060   83.5290 C   0  0  0  0  0  0  0  0  0  0  0  0
   29.6920   39.3640   83.9560 C   0  0  0  0  0  0  0  0  0  0  0  0
   30.0350   38.3950   82.8850 N   0  0  0  0  0  4  0  0  0  0  0  0
   29.6010   37.0630   83.3860 C   0  0  0  0  0  0  0  0  0  0  0  0
   29.9200   35.9740   82.3450 C   0  0  0  0  0  0  0  0  0  0  0  0
   31.3810   36.0020   82.0410 N   0  0  0  0  0  4  0  0  0  0  0  0
   31.8190   37.3430   81.5400 C   0  0  0  0  0  0  0  0  0  0  0  0
   31.5020   38.3960   82.6230 C   0  0  0  0  0  0  0  0  0  0  0  0
   25.1550   40.5460   84.7720 C   0  0  0  0  0  0  0  0  0  0  0  0
   24.5170   39.3180   84.6210 C   0  0  0  0  0  0  0  0  0  0  0  0
   25.0740   38.1100   83.9650 C   0  0  0  0  0  0  0  0  0  0  0  0
   24.9320   36.8190   84.5800 C   0  0  0  0  0  0  0  0  0  0  0  0
   25.4910   35.6660   83.9390 C   0  0  0  0  0  0  0  0  0  0  0  0
   26.1910   35.8130   82.6840 C   0  0  0  0  0  0  0  0  0  0  0  0
   26.3320   37.1090   82.0600 C   0  0  0  0  0  0  0  0  0  0  0  0
   25.7740   38.2600   82.7050 C   0  0  0  0  0  0  0  0  0  0  0  0
   21.7430   37.9540   86.7010 C   0  0  0  0  0  0  0  0  0  0  0  0
   20.6610   37.0410   86.8250 C   0  0  0  0  0  0  0  0  0  0  0  0
   19.0085   36.0652   85.7595 H   0  0  0  0  0  0  0  0  0  0  0  0
   19.4694   37.2234   83.5452 H   0  0  0  0  0  0  0  0  0  0  0  0
   21.4123   38.8446   83.3384 H   0  0  0  0  0  0  0  0  0  0  0  0
   26.1704   44.2729   85.5848 H   0  0  0  0  0  0  0  0  0  0  0  0
   27.8312   42.7832   84.4131 H   0  0  0  0  0  0  0  0  0  0  0  0
   26.9810   40.0830   82.8060 H   0  0  0  0  0  0  0  0  0  0  0  0
   28.9323   40.7147   82.4620 H   0  0  0  0  0  0  0  0  0  0  0  0
   29.0017   41.3781   84.1563 H   0  0  0  0  0  0  0  0  0  0  0  0
   30.6282   39.8063   84.3275 H   0  0  0  0  0  0  0  0  0  0  0  0
   29.1425   38.7937   84.7194 H   0  0  0  0  0  0  0  0  0  0  0  0
   29.5850   38.6310   82.0240 H   0  0  0  0  0  0  0  0  0  0  0  0
   30.1312   36.8367   84.3228 H   0  0  0  0  0  0  0  0  0  0  0  0
   28.5157   37.0825   83.5642 H   0  0  0  0  0  0  0  0  0  0  0  0
   29.6465   34.9877   82.7480 H   0  0  0  0  0  0  0  0  0  0  0  0
   29.3464   36.1612   81.4252 H   0  0  0  0  0  0  0  0  0  0  0  0
   31.8870   35.7910   82.8770 H   0  0  0  0  0  0  0  0  0  0  0  0
   31.5750   35.3180   81.3380 H   0  0  0  0  0  0  0  0  0  0  0  0
   32.9006   37.3297   81.3403 H   0  0  0  0  0  0  0  0  0  0  0  0
   31.2897   37.5891   80.6077 H   0  0  0  0  0  0  0  0  0  0  0  0
   32.0422   38.1476   83.5484 H   0  0  0  0  0  0  0  0  0  0  0  0
   31.8174   39.3915   82.2774 H   0  0  0  0  0  0  0  0  0  0  0  0
   24.3979   36.7167   85.5362 H   0  0  0  0  0  0  0  0  0  0  0  0
   25.3876   34.6729   84.4007 H   0  0  0  0  0  0  0  0  0  0  0  0
   26.6227   34.9264   82.1965 H   0  0  0  0  0  0  0  0  0  0  0  0
   26.8615   37.2104   81.1012 H   0  0  0  0  0  0  0  0  0  0  0  0
   25.8765   39.2542   82.2455 H   0  0  0  0  0  0  0  0  0  0  0  0
   22.3757   38.1605   87.5768 H   0  0  0  0  0  0  0  0  0  0  0  0
   20.4538   36.5468   87.7856 H   0  0  0  0  0  0  0  0  0  0  0  0
  1  2  2  0
  2  3  1  0
  3  4  2  0
  4  5  1  0
  5  6  1  0
  6  7  1  0
  7  8  2  0
  8  9  1  0
  9 10  2  0
 10 11  1  0
 11 12  1  0
 12 13  1  0
 13 14  1  0
 14 15  1  0
 15 16  1  0
 16 17  1  0
 17 18  1  0
 18 19  1  0
 19 20  1  0
 11 21  2  0
 21 22  1  0
 22 23  1  0
 23 24  2  0
 24 25  1  0
 25 26  2  0
 26 27  1  0
 27 28  2  0
  4 29  1  0
 29 30  2  0
 30  1  1  0
 22  5  2  0
 28 23  1  0
 21  7  1  0
 20 15  1  0
  1 31  1  0
  2 32  1  0
  3 33  1  0
  9 34  1  0
 10 35  1  0
 12 36  1  0
 13 37  1  0
 13 38  1  0
 14 39  1  0
 14 40  1  0
 15 41  1  0
 16 42  1  0
 16 43  1  0
 17 44  1  0
 17 45  1  0
 18 46  1  0
 18 47  1  0
 19 48  1  0
 19 49  1  0
 20 50  1  0
 20 51  1  0
 24 52  1  0
 25 53  1  0
 26 54  1  0
 27 55  1  0
 28 56  1  0
 29 57  1  0
 30 58  1  0
M  CHG  2  15   1  18   1
M  END
>  <meeko>  (31) 
{"free_energy": -10.461, "intermolecular_energy": -10.434, "internal_energy": -0.545}

$$$$

     RDKit          3D

 58 62  0  0  0  0  0  0  0  0999 V2000
   22.7140   43.7630   90.2760 C   0  0  0  0  0  0  0  0  0  0  0  0
   23.7940   42.8030   90.2120 C   0  0  0  0  0  0  0  0  0  0  0  0
   23.6740   41.6390   89.3790 C   0  0  0  0  0  0  0  0  0  0  0  0
   22.4730   41.4290   88.6190 C   0  0  0  0  0  0  0  0  0  0  0  0
   22.3860   40.2110   87.7510 C   0  0  0  0  0  0  0  0  0  0  0  0
   21.4110   39.2540   87.9520 O   0  0  0  0  0  0  0  0  0  0  0  0
   21.6260   38.3020   87.0080 C   0  0  0  0  0  0  0  0  0  0  0  0
   20.8950   37.1390   86.8120 N   0  0  0  0  0  0  0  0  0  0  0  0
   21.1940   36.2470   85.8330 C   0  0  0  0  0  0  0  0  0  0  0  0
   22.2720   36.4920   84.9440 C   0  0  0  0  0  0  0  0  0  0  0  0
   23.0640   37.6870   85.1010 C   0  0  0  0  0  0  0  0  0  0  0  0
   24.1210   37.9630   84.2580 N   0  0  0  0  0  0  0  0  0  0  0  0
   25.3850   37.2400   84.3020 C   0  0  0  0  0  0  0  0  0  0  0  0
   25.9610   36.9670   82.9100 C   0  0  0  0  0  0  0  0  0  0  0  0
   27.3820   37.3570   82.7270 N   0  0  0  0  0  4  0  0  0  0  0  0
   28.1420   36.0840   82.6080 C   0  0  0  0  0  0  0  0  0  0  0  0
   29.6420   36.3760   82.4200 C   0  0  0  0  0  0  0  0  0  0  0  0
   30.1250   37.2050   83.5640 N   0  0  0  0  0  4  0  0  0  0  0  0
   29.3580   38.4850   83.6870 C   0  0  0  0  0  0  0  0  0  0  0  0
   27.8670   38.1430   83.8960 C   0  0  0  0  0  0  0  0  0  0  0  0
   22.7230   38.6250   86.1740 C   0  0  0  0  0  0  0  0  0  0  0  0
   23.2750   39.8360   86.5820 C   0  0  0  0  0  0  0  0  0  0  0  0
   24.4430   40.5210   85.9760 C   0  0  0  0  0  0  0  0  0  0  0  0
   24.2740   41.3630   84.8230 C   0  0  0  0  0  0  0  0  0  0  0  0
   25.4160   42.0030   84.2430 C   0  0  0  0  0  0  0  0  0  0  0  0
   26.7240   41.7950   84.8190 C   0  0  0  0  0  0  0  0  0  0  0  0
   26.8980   40.9510   85.9800 C   0  0  0  0  0  0  0  0  0  0  0  0
   25.7540   40.3120   86.5570 C   0  0  0  0  0  0  0  0  0  0  0  0
   21.3990   42.4060   88.7050 C   0  0  0  0  0  0  0  0  0  0  0  0
   21.5120   43.5620   89.5240 C   0  0  0  0  0  0  0  0  0  0  0  0
   22.8170   44.6568   90.9089 H   0  0  0  0  0  0  0  0  0  0  0  0
   24.7083   42.9645   90.8019 H   0  0  0  0  0  0  0  0  0  0  0  0
   24.4976   40.9120   89.3232 H   0  0  0  0  0  0  0  0  0  0  0  0
   20.5969   35.3291   85.7286 H   0  0  0  0  0  0  0  0  0  0  0  0
   22.5020   35.7761   84.1412 H   0  0  0  0  0  0  0  0  0  0  0  0
   24.3590   38.9170   84.4420 H   0  0  0  0  0  0  0  0  0  0  0  0
   26.1118   37.8372   84.8722 H   0  0  0  0  0  0  0  0  0  0  0  0
   25.1936   36.2669   84.7779 H   0  0  0  0  0  0  0  0  0  0  0  0
   25.8758   35.8884   82.7118 H   0  0  0  0  0  0  0  0  0  0  0  0
   25.3811   37.5887   82.2120 H   0  0  0  0  0  0  0  0  0  0  0  0
   27.4990   37.9340   81.9190 H   0  0  0  0  0  0  0  0  0  0  0  0
   27.9994   35.4889   83.5221 H   0  0  0  0  0  0  0  0  0  0  0  0
   27.7728   35.5257   81.7351 H   0  0  0  0  0  0  0  0  0  0  0  0
   30.2007   35.4289   82.3895 H   0  0  0  0  0  0  0  0  0  0  0  0
   29.7986   36.9192   81.4764 H   0  0  0  0  0  0  0  0  0  0  0  0
   30.0130   36.6820   84.4090 H   0  0  0  0  0  0  0  0  0  0  0  0
   31.0900   37.4220   83.4190 H   0  0  0  0  0  0  0  0  0  0  0  0
   29.7311   39.0602   84.5472 H   0  0  0  0  0  0  0  0  0  0  0  0
   29.4826   39.0887   82.7760 H   0  0  0  0  0  0  0  0  0  0  0  0
   27.7500   37.5488   84.8143 H   0  0  0  0  0  0  0  0  0  0  0  0
   27.2823   39.0700   83.9894 H   0  0  0  0  0  0  0  0  0  0  0  0
   23.2744   41.5145   84.3895 H   0  0  0  0  0  0  0  0  0  0  0  0
   25.2975   42.6508   83.3619 H   0  0  0  0  0  0  0  0  0  0  0  0
   27.5996   42.2852   84.3684 H   0  0  0  0  0  0  0  0  0  0  0  0
   27.8973   40.8016   86.4148 H   0  0  0  0  0  0  0  0  0  0  0  0
   25.8699   39.6644   87.4386 H   0  0  0  0  0  0  0  0  0  0  0  0
   20.4790   42.2467   88.1234 H   0  0  0  0  0  0  0  0  0  0  0  0
   20.6896   44.2904   89.5793 H   0  0  0  0  0  0  0  0  0  0  0  0
  1  2  2  0
  2  3  1  0
  3  4  2  0
  4  5  1  0
  5  6  1  0
  6  7  1  0
  7  8  2  0
  8  9  1  0
  9 10  2  0
 10 11  1  0
 11 12  1  0
 12 13  1  0
 13 14  1  0
 14 15  1  0
 15 16  1  0
 16 17  1  0
 17 18  1  0
 18 19  1  0
 19 20  1  0
 11 21  2  0
 21 22  1  0
 22 23  1  0
 23 24  2  0
 24 25  1  0
 25 26  2  0
 26 27  1  0
 27 28  2  0
  4 29  1  0
 29 30  2  0
 30  1  1  0
 22  5  2  0
 28 23  1  0
 21  7  1  0
 20 15  1  0
  1 31  1  0
  2 32  1  0
  3 33  1  0
  9 34  1  0
 10 35  1  0
 12 36  1  0
 13 37  1  0
 13 38  1  0
 14 39  1  0
 14 40  1  0
 15 41  1  0
 16 42  1  0
 16 43  1  0
 17 44  1  0
 17 45  1  0
 18 46  1  0
 18 47  1  0
 19 48  1  0
 19 49  1  0
 20 50  1  0
 20 51  1  0
 24 52  1  0
 25 53  1  0
 26 54  1  0
 27 55  1  0
 28 56  1  0
 29 57  1  0
 30 58  1  0
M  CHG  2  15   1  18   1
M  END
>  <meeko>  (32) 
{"free_energy": -10.456, "intermolecular_energy": -9.321, "internal_energy": -1.65}

$$$$

     RDKit          3D

 58 62  0  0  0  0  0  0  0  0999 V2000
   19.5740   36.9040   85.4240 C   0  0  0  0  0  0  0  0  0  0  0  0
   20.1970   37.6920   84.3820 C   0  0  0  0  0  0  0  0  0  0  0  0
   21.4690   38.3160   84.6150 C   0  0  0  0  0  0  0  0  0  0  0  0
   22.1150   38.1600   85.8890 C   0  0  0  0  0  0  0  0  0  0  0  0
   23.4470   38.8130   86.0940 C   0  0  0  0  0  0  0  0  0  0  0  0
   23.6160   39.8270   87.0160 O   0  0  0  0  0  0  0  0  0  0  0  0
   24.9230   40.1860   86.9370 C   0  0  0  0  0  0  0  0  0  0  0  0
   25.5670   41.1680   87.6770 N   0  0  0  0  0  0  0  0  0  0  0  0
   26.8850   41.4510   87.5210 C   0  0  0  0  0  0  0  0  0  0  0  0
   27.6710   40.7190   86.5930 C   0  0  0  0  0  0  0  0  0  0  0  0
   27.0540   39.6860   85.7990 C   0  0  0  0  0  0  0  0  0  0  0  0
   27.7820   38.9510   84.8860 N   0  0  0  0  0  0  0  0  0  0  0  0
   28.2830   39.5060   83.6360 C   0  0  0  0  0  0  0  0  0  0  0  0
   29.5720   38.8280   83.1610 C   0  0  0  0  0  0  0  0  0  0  0  0
   30.8110   39.2790   83.8430 N   0  0  0  0  0  4  0  0  0  0  0  0
   31.0470   38.3060   84.9440 C   0  0  0  0  0  0  0  0  0  0  0  0
   32.3160   38.6880   85.7270 C   0  0  0  0  0  0  0  0  0  0  0  0
   32.1710   40.0820   86.2420 N   0  0  0  0  0  4  0  0  0  0  0  0
   31.9300   41.0610   85.1350 C   0  0  0  0  0  0  0  0  0  0  0  0
   30.6380   40.6520   84.3950 C   0  0  0  0  0  0  0  0  0  0  0  0
   25.6260   39.4110   85.9840 C   0  0  0  0  0  0  0  0  0  0  0  0
   24.7540   38.5040   85.3890 C   0  0  0  0  0  0  0  0  0  0  0  0
   25.0920   37.5170   84.3350 C   0  0  0  0  0  0  0  0  0  0  0  0
   25.5770   37.9580   83.0560 C   0  0  0  0  0  0  0  0  0  0  0  0
   25.8830   36.9900   82.0450 C   0  0  0  0  0  0  0  0  0  0  0  0
   25.6970   35.5840   82.3190 C   0  0  0  0  0  0  0  0  0  0  0  0
   25.2110   35.1360   83.6050 C   0  0  0  0  0  0  0  0  0  0  0  0
   24.9060   36.1070   84.6140 C   0  0  0  0  0  0  0  0  0  0  0  0
   21.4660   37.3680   86.9210 C   0  0  0  0  0  0  0  0  0  0  0  0
   20.2080   36.7440   86.6970 C   0  0  0  0  0  0  0  0  0  0  0  0
   18.6029   36.4230   85.2355 H   0  0  0  0  0  0  0  0  0  0  0  0
   19.6954   37.8130   83.4105 H   0  0  0  0  0  0  0  0  0  0  0  0
   21.9465   38.9105   83.8222 H   0  0  0  0  0  0  0  0  0  0  0  0
   27.3468   42.2520   88.1170 H   0  0  0  0  0  0  0  0  0  0  0  0
   28.7430   40.9383   86.4805 H   0  0  0  0  0  0  0  0  0  0  0  0
   27.1790   38.2000   84.6160 H   0  0  0  0  0  0  0  0  0  0  0  0
   27.5127   39.3789   82.8611 H   0  0  0  0  0  0  0  0  0  0  0  0
   28.5122   40.5673   83.8127 H   0  0  0  0  0  0  0  0  0  0  0  0
   29.4677   37.7454   83.3254 H   0  0  0  0  0  0  0  0  0  0  0  0
   29.6890   39.1020   82.1021 H   0  0  0  0  0  0  0  0  0  0  0  0
   31.5820   39.3140   83.2090 H   0  0  0  0  0  0  0  0  0  0  0  0
   30.1837   38.3120   85.6257 H   0  0  0  0  0  0  0  0  0  0  0  0
   31.1787   37.3021   84.5142 H   0  0  0  0  0  0  0  0  0  0  0  0
   32.4505   37.9956   86.5711 H   0  0  0  0  0  0  0  0  0  0  0  0
   33.1925   38.6266   85.0651 H   0  0  0  0  0  0  0  0  0  0  0  0
   31.3960   40.1120   86.8720 H   0  0  0  0  0  0  0  0  0  0  0  0
   33.0130   40.3380   86.7180 H   0  0  0  0  0  0  0  0  0  0  0  0
   31.8149   42.0724   85.5520 H   0  0  0  0  0  0  0  0  0  0  0  0
   32.7810   41.0603   84.4380 H   0  0  0  0  0  0  0  0  0  0  0  0
   29.7912   40.6636   85.0970 H   0  0  0  0  0  0  0  0  0  0  0  0
   30.4376   41.3596   83.5770 H   0  0  0  0  0  0  0  0  0  0  0  0
   25.7123   39.0309   82.8547 H   0  0  0  0  0  0  0  0  0  0  0  0
   26.2582   37.3163   81.0638 H   0  0  0  0  0  0  0  0  0  0  0  0
   25.9282   34.8440   81.5387 H   0  0  0  0  0  0  0  0  0  0  0  0
   25.0770   34.0629   83.8065 H   0  0  0  0  0  0  0  0  0  0  0  0
   24.5321   35.7833   85.5966 H   0  0  0  0  0  0  0  0  0  0  0  0
   21.9591   37.2488   87.8970 H   0  0  0  0  0  0  0  0  0  0  0  0
   19.7303   36.1484   87.4888 H   0  0  0  0  0  0  0  0  0  0  0  0
  1  2  2  0
  2  3  1  0
  3  4  2  0
  4  5  1  0
  5  6  1  0
  6  7  1  0
  7  8  2  0
  8  9  1  0
  9 10  2  0
 10 11  1  0
 11 12  1  0
 12 13  1  0
 13 14  1  0
 14 15  1  0
 15 16  1  0
 16 17  1  0
 17 18  1  0
 18 19  1  0
 19 20  1  0
 11 21  2  0
 21 22  1  0
 22 23  1  0
 23 24  2  0
 24 25  1  0
 25 26  2  0
 26 27  1  0
 27 28  2  0
  4 29  1  0
 29 30  2  0
 30  1  1  0
 22  5  2  0
 28 23  1  0
 21  7  1  0
 20 15  1  0
  1 31  1  0
  2 32  1  0
  3 33  1  0
  9 34  1  0
 10 35  1  0
 12 36  1  0
 13 37  1  0
 13 38  1  0
 14 39  1  0
 14 40  1  0
 15 41  1  0
 16 42  1  0
 16 43  1  0
 17 44  1  0
 17 45  1  0
 18 46  1  0
 18 47  1  0
 19 48  1  0
 19 49  1  0
 20 50  1  0
 20 51  1  0
 24 52  1  0
 25 53  1  0
 26 54  1  0
 27 55  1  0
 28 56  1  0
 29 57  1  0
 30 58  1  0
M  CHG  2  15   1  18   1
M  END
>  <meeko>  (33) 
{"free_energy": -10.447, "intermolecular_energy": -10.188, "internal_energy": -0.771}

$$$$

     RDKit          3D

 58 62  0  0  0  0  0  0  0  0999 V2000
   31.5580   36.9010   81.7160 C   0  0  0  0  0  0  0  0  0  0  0  0
   31.6780   38.2690   82.1740 C   0  0  0  0  0  0  0  0  0  0  0  0
   30.6970   38.8160   83.0690 C   0  0  0  0  0  0  0  0  0  0  0  0
   29.5940   38.0020   83.4990 C   0  0  0  0  0  0  0  0  0  0  0  0
   28.5970   38.6000   84.4430 C   0  0  0  0  0  0  0  0  0  0  0  0
   28.9690   39.5520   85.3720 O   0  0  0  0  0  0  0  0  0  0  0  0
   27.8370   39.8660   86.0540 C   0  0  0  0  0  0  0  0  0  0  0  0
   27.7120   40.7820   87.0900 N   0  0  0  0  0  0  0  0  0  0  0  0
   26.5290   41.0240   87.7090 C   0  0  0  0  0  0  0  0  0  0  0  0
   25.3510   40.3520   87.2930 C   0  0  0  0  0  0  0  0  0  0  0  0
   25.4220   39.3910   86.2200 C   0  0  0  0  0  0  0  0  0  0  0  0
   24.3010   38.7150   85.7850 N   0  0  0  0  0  0  0  0  0  0  0  0
   22.9680   38.9540   86.3230 C   0  0  0  0  0  0  0  0  0  0  0  0
   21.9440   39.2990   85.2370 C   0  0  0  0  0  0  0  0  0  0  0  0
   21.8270   40.7440   84.9160 N   0  0  0  0  0  4  0  0  0  0  0  0
   22.6420   40.9570   83.6900 C   0  0  0  0  0  0  0  0  0  0  0  0
   22.5940   42.4380   83.2710 C   0  0  0  0  0  0  0  0  0  0  0  0
   23.0700   43.2820   84.4070 N   0  0  0  0  0  4  0  0  0  0  0  0
   22.2520   43.0660   85.6420 C   0  0  0  0  0  0  0  0  0  0  0  0
   22.3490   41.5760   86.0360 C   0  0  0  0  0  0  0  0  0  0  0  0
   26.7170   39.1440   85.5780 C   0  0  0  0  0  0  0  0  0  0  0  0
   27.1140   38.3020   84.5440 C   0  0  0  0  0  0  0  0  0  0  0  0
   26.2450   37.3720   83.7810 C   0  0  0  0  0  0  0  0  0  0  0  0
   25.4510   36.3910   84.4690 C   0  0  0  0  0  0  0  0  0  0  0  0
   24.6310   35.4910   83.7140 C   0  0  0  0  0  0  0  0  0  0  0  0
   24.6130   35.5760   82.2720 C   0  0  0  0  0  0  0  0  0  0  0  0
   25.4080   36.5630   81.5770 C   0  0  0  0  0  0  0  0  0  0  0  0
   26.2270   37.4610   82.3350 C   0  0  0  0  0  0  0  0  0  0  0  0
   29.4930   36.6330   83.0200 C   0  0  0  0  0  0  0  0  0  0  0  0
   30.4620   36.0830   82.1360 C   0  0  0  0  0  0  0  0  0  0  0  0
   32.3179   36.4859   81.0376 H   0  0  0  0  0  0  0  0  0  0  0  0
   32.5210   38.8898   81.8364 H   0  0  0  0  0  0  0  0  0  0  0  0
   30.7897   39.8532   83.4236 H   0  0  0  0  0  0  0  0  0  0  0  0
   26.4832   41.7454   88.5381 H   0  0  0  0  0  0  0  0  0  0  0  0
   24.3901   40.5624   87.7854 H   0  0  0  0  0  0  0  0  0  0  0  0
   24.4890   37.7510   85.9710 H   0  0  0  0  0  0  0  0  0  0  0  0
   22.6325   38.0471   86.8473 H   0  0  0  0  0  0  0  0  0  0  0  0
   23.0342   39.8165   87.0025 H   0  0  0  0  0  0  0  0  0  0  0  0
   22.2310   38.7681   84.3174 H   0  0  0  0  0  0  0  0  0  0  0  0
   20.9641   38.9934   85.6325 H   0  0  0  0  0  0  0  0  0  0  0  0
   20.8730   41.0080   84.7770 H   0  0  0  0  0  0  0  0  0  0  0  0
   23.6845   40.6701   83.8922 H   0  0  0  0  0  0  0  0  0  0  0  0
   22.2341   40.3399   82.8758 H   0  0  0  0  0  0  0  0  0  0  0  0
   23.2440   42.5951   82.3976 H   0  0  0  0  0  0  0  0  0  0  0  0
   21.5625   42.7161   83.0091 H   0  0  0  0  0  0  0  0  0  0  0  0
   24.0210   43.0460   84.6060 H   0  0  0  0  0  0  0  0  0  0  0  0
   23.0020   44.2440   84.1420 H   0  0  0  0  0  0  0  0  0  0  0  0
   22.6399   43.6924   86.4588 H   0  0  0  0  0  0  0  0  0  0  0  0
   21.2034   43.3398   85.4537 H   0  0  0  0  0  0  0  0  0  0  0  0
   23.3992   41.3138   86.2320 H   0  0  0  0  0  0  0  0  0  0  0  0
   21.7558   41.3920   86.9439 H   0  0  0  0  0  0  0  0  0  0  0  0
   25.4728   36.3317   85.5672 H   0  0  0  0  0  0  0  0  0  0  0  0
   24.0174   34.7381   84.2304 H   0  0  0  0  0  0  0  0  0  0  0  0
   23.9859   34.8803   81.6952 H   0  0  0  0  0  0  0  0  0  0  0  0
   25.3843   36.6238   80.4789 H   0  0  0  0  0  0  0  0  0  0  0  0
   26.8403   38.2157   81.8209 H   0  0  0  0  0  0  0  0  0  0  0  0
   28.6488   36.0090   83.3484 H   0  0  0  0  0  0  0  0  0  0  0  0
   30.3702   35.0459   81.7811 H   0  0  0  0  0  0  0  0  0  0  0  0
  1  2  2  0
  2  3  1  0
  3  4  2  0
  4  5  1  0
  5  6  1  0
  6  7  1  0
  7  8  2  0
  8  9  1  0
  9 10  2  0
 10 11  1  0
 11 12  1  0
 12 13  1  0
 13 14  1  0
 14 15  1  0
 15 16  1  0
 16 17  1  0
 17 18  1  0
 18 19  1  0
 19 20  1  0
 11 21  2  0
 21 22  1  0
 22 23  1  0
 23 24  2  0
 24 25  1  0
 25 26  2  0
 26 27  1  0
 27 28  2  0
  4 29  1  0
 29 30  2  0
 30  1  1  0
 22  5  2  0
 28 23  1  0
 21  7  1  0
 20 15  1  0
  1 31  1  0
  2 32  1  0
  3 33  1  0
  9 34  1  0
 10 35  1  0
 12 36  1  0
 13 37  1  0
 13 38  1  0
 14 39  1  0
 14 40  1  0
 15 41  1  0
 16 42  1  0
 16 43  1  0
 17 44  1  0
 17 45  1  0
 18 46  1  0
 18 47  1  0
 19 48  1  0
 19 49  1  0
 20 50  1  0
 20 51  1  0
 24 52  1  0
 25 53  1  0
 26 54  1  0
 27 55  1  0
 28 56  1  0
 29 57  1  0
 30 58  1  0
M  CHG  2  15   1  18   1
M  END
>  <meeko>  (34) 
{"free_energy": -10.418, "intermolecular_energy": -10.181, "internal_energy": -0.74}

$$$$

     RDKit          3D

 58 62  0  0  0  0  0  0  0  0999 V2000
   25.7320   35.7250   82.0220 C   0  0  0  0  0  0  0  0  0  0  0  0
   24.8470   35.3970   83.1180 C   0  0  0  0  0  0  0  0  0  0  0  0
   24.7140   36.2980   84.2290 C   0  0  0  0  0  0  0  0  0  0  0  0
   25.4700   37.5190   84.2490 C   0  0  0  0  0  0  0  0  0  0  0  0
   25.2960   38.4420   85.4170 C   0  0  0  0  0  0  0  0  0  0  0  0
   26.3830   39.0220   86.0410 O   0  0  0  0  0  0  0  0  0  0  0  0
   25.8720   39.7800   87.0450 C   0  0  0  0  0  0  0  0  0  0  0  0
   26.5820   40.5570   87.9500 N   0  0  0  0  0  0  0  0  0  0  0  0
   25.9720   41.2830   88.9220 C   0  0  0  0  0  0  0  0  0  0  0  0
   24.5580   41.2900   89.0320 C   0  0  0  0  0  0  0  0  0  0  0  0
   23.7700   40.5020   88.1160 C   0  0  0  0  0  0  0  0  0  0  0  0
   22.3930   40.4800   88.1880 N   0  0  0  0  0  0  0  0  0  0  0  0
   21.5470   41.4870   87.5590 C   0  0  0  0  0  0  0  0  0  0  0  0
   20.8220   42.3710   88.5780 C   0  0  0  0  0  0  0  0  0  0  0  0
   21.5360   43.6170   88.9530 N   0  0  0  0  0  4  0  0  0  0  0  0
   22.5950   43.8060   87.9250 C   0  0  0  0  0  0  0  0  0  0  0  0
   23.4080   45.0780   88.2270 C   0  0  0  0  0  0  0  0  0  0  0  0
   23.9820   44.9770   89.6010 N   0  0  0  0  0  4  0  0  0  0  0  0
   22.9170   44.7830   90.6360 C   0  0  0  0  0  0  0  0  0  0  0  0
   22.1460   43.4870   90.3060 C   0  0  0  0  0  0  0  0  0  0  0  0
   24.4590   39.7210   87.0840 C   0  0  0  0  0  0  0  0  0  0  0  0
   24.0020   38.8790   86.0740 C   0  0  0  0  0  0  0  0  0  0  0  0
   22.5880   38.5410   85.7800 C   0  0  0  0  0  0  0  0  0  0  0  0
   21.8870   37.5800   86.5870 C   0  0  0  0  0  0  0  0  0  0  0  0
   20.5270   37.2550   86.2770 C   0  0  0  0  0  0  0  0  0  0  0  0
   19.8760   37.8930   85.1570 C   0  0  0  0  0  0  0  0  0  0  0  0
   20.5760   38.8620   84.3440 C   0  0  0  0  0  0  0  0  0  0  0  0
   21.9360   39.1840   84.6560 C   0  0  0  0  0  0  0  0  0  0  0  0
   26.3570   37.8230   83.1380 C   0  0  0  0  0  0  0  0  0  0  0  0
   26.4920   36.9390   82.0340 C   0  0  0  0  0  0  0  0  0  0  0  0
   25.8223   35.0348   81.1703 H   0  0  0  0  0  0  0  0  0  0  0  0
   24.2755   34.4573   83.1008 H   0  0  0  0  0  0  0  0  0  0  0  0
   24.0364   36.0539   85.0604 H   0  0  0  0  0  0  0  0  0  0  0  0
   26.5782   41.8692   89.6283 H   0  0  0  0  0  0  0  0  0  0  0  0
   24.0658   41.8919   89.8101 H   0  0  0  0  0  0  0  0  0  0  0  0
   22.1820   40.5330   89.1640 H   0  0  0  0  0  0  0  0  0  0  0  0
   22.1757   42.1269   86.9225 H   0  0  0  0  0  0  0  0  0  0  0  0
   20.7805   40.9580   86.9736 H   0  0  0  0  0  0  0  0  0  0  0  0
   19.8473   42.6519   88.1526 H   0  0  0  0  0  0  0  0  0  0  0  0
   20.7433   41.7746   89.4990 H   0  0  0  0  0  0  0  0  0  0  0  0
   20.9120   44.3970   88.9890 H   0  0  0  0  0  0  0  0  0  0  0  0
   23.2670   42.9352   87.9313 H   0  0  0  0  0  0  0  0  0  0  0  0
   22.1221   43.9083   86.9371 H   0  0  0  0  0  0  0  0  0  0  0  0
   24.2223   45.1772   87.4942 H   0  0  0  0  0  0  0  0  0  0  0  0
   22.7534   45.9597   88.1631 H   0  0  0  0  0  0  0  0  0  0  0  0
   24.6050   44.1950   89.6320 H   0  0  0  0  0  0  0  0  0  0  0  0
   24.4780   45.8210   89.8050 H   0  0  0  0  0  0  0  0  0  0  0  0
   23.3775   44.6979   91.6313 H   0  0  0  0  0  0  0  0  0  0  0  0
   22.2296   45.6417   90.6360 H   0  0  0  0  0  0  0  0  0  0  0  0
   22.8387   42.6326   90.3178 H   0  0  0  0  0  0  0  0  0  0  0  0
   21.3574   43.3226   91.0551 H   0  0  0  0  0  0  0  0  0  0  0  0
   22.3917   37.0974   87.4370 H   0  0  0  0  0  0  0  0  0  0  0  0
   19.9807   36.5225   86.8894 H   0  0  0  0  0  0  0  0  0  0  0  0
   18.8327   37.6381   84.9191 H   0  0  0  0  0  0  0  0  0  0  0  0
   20.0699   39.3462   83.4958 H   0  0  0  0  0  0  0  0  0  0  0  0
   22.4840   39.9165   84.0451 H   0  0  0  0  0  0  0  0  0  0  0  0
   26.9363   38.7580   83.1525 H   0  0  0  0  0  0  0  0  0  0  0  0
   27.1691   37.1829   81.2021 H   0  0  0  0  0  0  0  0  0  0  0  0
  1  2  2  0
  2  3  1  0
  3  4  2  0
  4  5  1  0
  5  6  1  0
  6  7  1  0
  7  8  2  0
  8  9  1  0
  9 10  2  0
 10 11  1  0
 11 12  1  0
 12 13  1  0
 13 14  1  0
 14 15  1  0
 15 16  1  0
 16 17  1  0
 17 18  1  0
 18 19  1  0
 19 20  1  0
 11 21  2  0
 21 22  1  0
 22 23  1  0
 23 24  2  0
 24 25  1  0
 25 26  2  0
 26 27  1  0
 27 28  2  0
  4 29  1  0
 29 30  2  0
 30  1  1  0
 22  5  2  0
 28 23  1  0
 21  7  1  0
 20 15  1  0
  1 31  1  0
  2 32  1  0
  3 33  1  0
  9 34  1  0
 10 35  1  0
 12 36  1  0
 13 37  1  0
 13 38  1  0
 14 39  1  0
 14 40  1  0
 15 41  1  0
 16 42  1  0
 16 43  1  0
 17 44  1  0
 17 45  1  0
 18 46  1  0
 18 47  1  0
 19 48  1  0
 19 49  1  0
 20 50  1  0
 20 51  1  0
 24 52  1  0
 25 53  1  0
 26 54  1  0
 27 55  1  0
 28 56  1  0
 29 57  1  0
 30 58  1  0
M  CHG  2  15   1  18   1
M  END
>  <meeko>  (35) 
{"free_energy": -10.393, "intermolecular_energy": -9.515, "internal_energy": -1.371}

$$$$

     RDKit          3D

 58 62  0  0  0  0  0  0  0  0999 V2000
   20.2870   39.6990   86.3440 C   0  0  0  0  0  0  0  0  0  0  0  0
   20.9260   38.5080   86.8610 C   0  0  0  0  0  0  0  0  0  0  0  0
   22.1980   38.0910   86.3410 C   0  0  0  0  0  0  0  0  0  0  0  0
   22.8270   38.8580   85.3010 C   0  0  0  0  0  0  0  0  0  0  0  0
   24.1600   38.4020   84.7910 C   0  0  0  0  0  0  0  0  0  0  0  0
   24.2670   37.3620   83.8880 O   0  0  0  0  0  0  0  0  0  0  0  0
   25.5950   37.2130   83.6500 C   0  0  0  0  0  0  0  0  0  0  0  0
   26.1940   36.2900   82.8050 N   0  0  0  0  0  0  0  0  0  0  0  0
   27.5400   36.2220   82.6360 C   0  0  0  0  0  0  0  0  0  0  0  0
   28.3940   37.1290   83.3150 C   0  0  0  0  0  0  0  0  0  0  0  0
   27.8250   38.1110   84.2050 C   0  0  0  0  0  0  0  0  0  0  0  0
   28.6190   39.0100   84.8840 N   0  0  0  0  0  0  0  0  0  0  0  0
   30.0750   38.9790   84.8400 C   0  0  0  0  0  0  0  0  0  0  0  0
   30.6670   40.1050   83.9870 C   0  0  0  0  0  0  0  0  0  0  0  0
   31.6110   39.6660   82.9290 N   0  0  0  0  0  4  0  0  0  0  0  0
   31.3840   40.5790   81.7760 C   0  0  0  0  0  0  0  0  0  0  0  0
   32.3170   40.2030   80.6090 C   0  0  0  0  0  0  0  0  0  0  0  0
   32.0860   38.7750   80.2400 N   0  0  0  0  0  4  0  0  0  0  0  0
   32.3110   37.8570   81.4010 C   0  0  0  0  0  0  0  0  0  0  0  0
   31.3410   38.2550   82.5340 C   0  0  0  0  0  0  0  0  0  0  0  0
   26.3690   38.1510   84.3730 C   0  0  0  0  0  0  0  0  0  0  0  0
   25.5280   38.9540   85.1380 C   0  0  0  0  0  0  0  0  0  0  0  0
   25.9430   40.0540   86.0440 C   0  0  0  0  0  0  0  0  0  0  0  0
   26.3950   41.3080   85.5050 C   0  0  0  0  0  0  0  0  0  0  0  0
   26.8070   42.3510   86.3960 C   0  0  0  0  0  0  0  0  0  0  0  0
   26.7660   42.1330   87.8230 C   0  0  0  0  0  0  0  0  0  0  0  0
   26.3080   40.8750   88.3690 C   0  0  0  0  0  0  0  0  0  0  0  0
   25.8990   39.8330   87.4750 C   0  0  0  0  0  0  0  0  0  0  0  0
   22.1620   40.0470   84.7940 C   0  0  0  0  0  0  0  0  0  0  0  0
   20.9040   40.4680   85.3060 C   0  0  0  0  0  0  0  0  0  0  0  0
   19.3166   40.0169   86.7530 H   0  0  0  0  0  0  0  0  0  0  0  0
   20.4370   37.9216   87.6529 H   0  0  0  0  0  0  0  0  0  0  0  0
   22.6883   37.1893   86.7366 H   0  0  0  0  0  0  0  0  0  0  0  0
   27.9701   35.4600   81.9694 H   0  0  0  0  0  0  0  0  0  0  0  0
   29.4826   37.0836   83.1637 H   0  0  0  0  0  0  0  0  0  0  0  0
   28.3840   38.8900   85.8480 H   0  0  0  0  0  0  0  0  0  0  0  0
   30.4598   39.0758   85.8659 H   0  0  0  0  0  0  0  0  0  0  0  0
   30.3723   38.0245   84.3811 H   0  0  0  0  0  0  0  0  0  0  0  0
   29.8357   40.6376   83.5019 H   0  0  0  0  0  0  0  0  0  0  0  0
   31.2503   40.7349   84.6747 H   0  0  0  0  0  0  0  0  0  0  0  0
   32.5580   39.7030   83.2490 H   0  0  0  0  0  0  0  0  0  0  0  0
   30.3379   40.4953   81.4465 H   0  0  0  0  0  0  0  0  0  0  0  0
   31.5974   41.6119   82.0882 H   0  0  0  0  0  0  0  0  0  0  0  0
   32.1019   40.8467   79.7433 H   0  0  0  0  0  0  0  0  0  0  0  0
   33.3651   40.3426   80.9124 H   0  0  0  0  0  0  0  0  0  0  0  0
   31.1420   38.6720   79.9280 H   0  0  0  0  0  0  0  0  0  0  0  0
   32.7200   38.5260   79.5070 H   0  0  0  0  0  0  0  0  0  0  0  0
   32.1185   36.8180   81.0954 H   0  0  0  0  0  0  0  0  0  0  0  0
   33.3513   37.9372   81.7494 H   0  0  0  0  0  0  0  0  0  0  0  0
   30.3034   38.1628   82.1807 H   0  0  0  0  0  0  0  0  0  0  0  0
   31.4875   37.5918   83.3993 H   0  0  0  0  0  0  0  0  0  0  0  0
   26.4242   41.4651   84.4167 H   0  0  0  0  0  0  0  0  0  0  0  0
   27.1535   43.3148   85.9947 H   0  0  0  0  0  0  0  0  0  0  0  0
   27.0876   42.9349   88.5038 H   0  0  0  0  0  0  0  0  0  0  0  0
   26.2740   40.7199   89.4575 H   0  0  0  0  0  0  0  0  0  0  0  0
   25.5526   38.8682   87.8739 H   0  0  0  0  0  0  0  0  0  0  0  0
   22.6423   40.6337   83.9971 H   0  0  0  0  0  0  0  0  0  0  0  0
   20.4130   41.3696   84.9110 H   0  0  0  0  0  0  0  0  0  0  0  0
  1  2  2  0
  2  3  1  0
  3  4  2  0
  4  5  1  0
  5  6  1  0
  6  7  1  0
  7  8  2  0
  8  9  1  0
  9 10  2  0
 10 11  1  0
 11 12  1  0
 12 13  1  0
 13 14  1  0
 14 15  1  0
 15 16  1  0
 16 17  1  0
 17 18  1  0
 18 19  1  0
 19 20  1  0
 11 21  2  0
 21 22  1  0
 22 23  1  0
 23 24  2  0
 24 25  1  0
 25 26  2  0
 26 27  1  0
 27 28  2  0
  4 29  1  0
 29 30  2  0
 30  1  1  0
 22  5  2  0
 28 23  1  0
 21  7  1  0
 20 15  1  0
  1 31  1  0
  2 32  1  0
  3 33  1  0
  9 34  1  0
 10 35  1  0
 12 36  1  0
 13 37  1  0
 13 38  1  0
 14 39  1  0
 14 40  1  0
 15 41  1  0
 16 42  1  0
 16 43  1  0
 17 44  1  0
 17 45  1  0
 18 46  1  0
 18 47  1  0
 19 48  1  0
 19 49  1  0
 20 50  1  0
 20 51  1  0
 24 52  1  0
 25 53  1  0
 26 54  1  0
 27 55  1  0
 28 56  1  0
 29 57  1  0
 30 58  1  0
M  CHG  2  15   1  18   1
M  END
>  <meeko>  (36) 
{"free_energy": -10.387, "intermolecular_energy": -9.717, "internal_energy": -1.161}

$$$$

     RDKit          3D

 58 62  0  0  0  0  0  0  0  0999 V2000
   19.6550   37.0680   84.4340 C   0  0  0  0  0  0  0  0  0  0  0  0
   20.2740   38.1970   83.7740 C   0  0  0  0  0  0  0  0  0  0  0  0
   21.2980   38.9490   84.4450 C   0  0  0  0  0  0  0  0  0  0  0  0
   21.6960   38.5790   85.7750 C   0  0  0  0  0  0  0  0  0  0  0  0
   22.7760   39.3770   86.4400 C   0  0  0  0  0  0  0  0  0  0  0  0
   22.5030   40.1980   87.5160 O   0  0  0  0  0  0  0  0  0  0  0  0
   23.6880   40.7640   87.8600 C   0  0  0  0  0  0  0  0  0  0  0  0
   23.9170   41.6650   88.8910 N   0  0  0  0  0  0  0  0  0  0  0  0
   25.1470   42.1750   89.1530 C   0  0  0  0  0  0  0  0  0  0  0  0
   26.2690   41.7770   88.3800 C   0  0  0  0  0  0  0  0  0  0  0  0
   26.0890   40.8410   87.2980 C   0  0  0  0  0  0  0  0  0  0  0  0
   27.1520   40.4280   86.5220 N   0  0  0  0  0  0  0  0  0  0  0  0
   28.3360   41.2460   86.2920 C   0  0  0  0  0  0  0  0  0  0  0  0
   28.4830   41.6790   84.8300 C   0  0  0  0  0  0  0  0  0  0  0  0
   29.8690   41.6480   84.3000 N   0  0  0  0  0  4  0  0  0  0  0  0
   29.8440   40.7030   83.1500 C   0  0  0  0  0  0  0  0  0  0  0  0
   31.2470   40.5910   82.5250 C   0  0  0  0  0  0  0  0  0  0  0  0
   32.2160   40.1600   83.5750 N   0  0  0  0  0  4  0  0  0  0  0  0
   32.2390   41.1070   84.7340 C   0  0  0  0  0  0  0  0  0  0  0  0
   30.8210   41.1700   85.3410 C   0  0  0  0  0  0  0  0  0  0  0  0
   24.7460   40.3170   87.0330 C   0  0  0  0  0  0  0  0  0  0  0  0
   24.2500   39.4240   86.0880 C   0  0  0  0  0  0  0  0  0  0  0  0
   25.0300   38.7340   85.0300 C   0  0  0  0  0  0  0  0  0  0  0  0
   25.7960   39.4940   84.0810 C   0  0  0  0  0  0  0  0  0  0  0  0
   26.5290   38.8110   83.0580 C   0  0  0  0  0  0  0  0  0  0  0  0
   26.4890   37.3690   82.9890 C   0  0  0  0  0  0  0  0  0  0  0  0
   25.7220   36.6010   83.9440 C   0  0  0  0  0  0  0  0  0  0  0  0
   24.9890   37.2870   84.9650 C   0  0  0  0  0  0  0  0  0  0  0  0
   21.0540   37.4450   86.4180 C   0  0  0  0  0  0  0  0  0  0  0  0
   20.0430   36.6930   85.7600 C   0  0  0  0  0  0  0  0  0  0  0  0
   18.8777   36.4914   83.9111 H   0  0  0  0  0  0  0  0  0  0  0  0
   19.9605   38.4797   82.7582 H   0  0  0  0  0  0  0  0  0  0  0  0
   21.7749   39.8037   83.9430 H   0  0  0  0  0  0  0  0  0  0  0  0
   25.2753   42.9011   89.9693 H   0  0  0  0  0  0  0  0  0  0  0  0
   27.2678   42.1794   88.6046 H   0  0  0  0  0  0  0  0  0  0  0  0
   26.7660   40.2670   85.6140 H   0  0  0  0  0  0  0  0  0  0  0  0
   28.2686   42.1464   86.9202 H   0  0  0  0  0  0  0  0  0  0  0  0
   29.2150   40.6357   86.5468 H   0  0  0  0  0  0  0  0  0  0  0  0
   27.8671   41.0086   84.2126 H   0  0  0  0  0  0  0  0  0  0  0  0
   28.1629   42.7306   84.7885 H   0  0  0  0  0  0  0  0  0  0  0  0
   30.1730   42.5590   84.0230 H   0  0  0  0  0  0  0  0  0  0  0  0
   29.5221   39.7115   83.5011 H   0  0  0  0  0  0  0  0  0  0  0  0
   29.1414   41.0783   82.3914 H   0  0  0  0  0  0  0  0  0  0  0  0
   31.2303   39.8497   81.7125 H   0  0  0  0  0  0  0  0  0  0  0  0
   31.5507   41.5669   82.1184 H   0  0  0  0  0  0  0  0  0  0  0  0
   31.9500   39.2550   83.9060 H   0  0  0  0  0  0  0  0  0  0  0  0
   33.1310   40.1240   83.1720 H   0  0  0  0  0  0  0  0  0  0  0  0
   32.9517   40.7494   85.4917 H   0  0  0  0  0  0  0  0  0  0  0  0
   32.5509   42.1070   84.3984 H   0  0  0  0  0  0  0  0  0  0  0  0
   30.5213   40.1684   85.6829 H   0  0  0  0  0  0  0  0  0  0  0  0
   30.8134   41.8608   86.1970 H   0  0  0  0  0  0  0  0  0  0  0  0
   25.8191   40.5922   84.1400 H   0  0  0  0  0  0  0  0  0  0  0  0
   27.1203   39.3825   82.3274 H   0  0  0  0  0  0  0  0  0  0  0  0
   27.0498   36.8479   82.1991 H   0  0  0  0  0  0  0  0  0  0  0  0
   25.7018   35.5027   83.8870 H   0  0  0  0  0  0  0  0  0  0  0  0
   24.3972   36.7179   85.6970 H   0  0  0  0  0  0  0  0  0  0  0  0
   21.3572   37.1621   87.4369 H   0  0  0  0  0  0  0  0  0  0  0  0
   19.5668   35.8374   86.2612 H   0  0  0  0  0  0  0  0  0  0  0  0
  1  2  2  0
  2  3  1  0
  3  4  2  0
  4  5  1  0
  5  6  1  0
  6  7  1  0
  7  8  2  0
  8  9  1  0
  9 10  2  0
 10 11  1  0
 11 12  1  0
 12 13  1  0
 13 14  1  0
 14 15  1  0
 15 16  1  0
 16 17  1  0
 17 18  1  0
 18 19  1  0
 19 20  1  0
 11 21  2  0
 21 22  1  0
 22 23  1  0
 23 24  2  0
 24 25  1  0
 25 26  2  0
 26 27  1  0
 27 28  2  0
  4 29  1  0
 29 30  2  0
 30  1  1  0
 22  5  2  0
 28 23  1  0
 21  7  1  0
 20 15  1  0
  1 31  1  0
  2 32  1  0
  3 33  1  0
  9 34  1  0
 10 35  1  0
 12 36  1  0
 13 37  1  0
 13 38  1  0
 14 39  1  0
 14 40  1  0
 15 41  1  0
 16 42  1  0
 16 43  1  0
 17 44  1  0
 17 45  1  0
 18 46  1  0
 18 47  1  0
 19 48  1  0
 19 49  1  0
 20 50  1  0
 20 51  1  0
 24 52  1  0
 25 53  1  0
 26 54  1  0
 27 55  1  0
 28 56  1  0
 29 57  1  0
 30 58  1  0
M  CHG  2  15   1  18   1
M  END
>  <meeko>  (37) 
{"free_energy": -10.199, "intermolecular_energy": -9.588, "internal_energy": -1.037}

$$$$

     RDKit          3D

 58 62  0  0  0  0  0  0  0  0999 V2000
   31.4720   36.9390   81.7030 C   0  0  0  0  0  0  0  0  0  0  0  0
   30.3180   36.1480   82.0710 C   0  0  0  0  0  0  0  0  0  0  0  0
   29.3430   36.6780   82.9820 C   0  0  0  0  0  0  0  0  0  0  0  0
   29.5250   37.9930   83.5320 C   0  0  0  0  0  0  0  0  0  0  0  0
   28.4810   38.5190   84.4700 C   0  0  0  0  0  0  0  0  0  0  0  0
   28.7840   39.4830   85.4130 O   0  0  0  0  0  0  0  0  0  0  0  0
   27.6270   39.7200   86.0840 C   0  0  0  0  0  0  0  0  0  0  0  0
   27.4340   40.6160   87.1260 N   0  0  0  0  0  0  0  0  0  0  0  0
   26.2310   40.7790   87.7330 C   0  0  0  0  0  0  0  0  0  0  0  0
   25.1010   40.0410   87.2960 C   0  0  0  0  0  0  0  0  0  0  0  0
   25.2440   39.0970   86.2150 C   0  0  0  0  0  0  0  0  0  0  0  0
   24.1720   38.3590   85.7590 N   0  0  0  0  0  0  0  0  0  0  0  0
   23.2230   38.8580   84.7720 C   0  0  0  0  0  0  0  0  0  0  0  0
   22.0550   39.6200   85.4050 C   0  0  0  0  0  0  0  0  0  0  0  0
   21.9670   41.0560   85.0420 N   0  0  0  0  0  4  0  0  0  0  0  0
   22.6020   41.1770   83.7010 C   0  0  0  0  0  0  0  0  0  0  0  0
   22.5700   42.6430   83.2290 C   0  0  0  0  0  0  0  0  0  0  0  0
   23.2530   43.4980   84.2450 N   0  0  0  0  0  4  0  0  0  0  0  0
   22.6180   43.3740   85.5940 C   0  0  0  0  0  0  0  0  0  0  0  0
   22.6930   41.8960   86.0360 C   0  0  0  0  0  0  0  0  0  0  0  0
   26.5590   38.9360   85.5870 C   0  0  0  0  0  0  0  0  0  0  0  0
   27.0190   38.1310   84.5490 C   0  0  0  0  0  0  0  0  0  0  0  0
   26.2170   37.1570   83.7670 C   0  0  0  0  0  0  0  0  0  0  0  0
   26.0140   37.3500   82.3570 C   0  0  0  0  0  0  0  0  0  0  0  0
   25.2240   36.4080   81.6220 C   0  0  0  0  0  0  0  0  0  0  0  0
   24.6370   35.2780   82.3050 C   0  0  0  0  0  0  0  0  0  0  0  0
   24.8420   35.0790   83.7220 C   0  0  0  0  0  0  0  0  0  0  0  0
   25.6320   36.0230   84.4540 C   0  0  0  0  0  0  0  0  0  0  0  0
   30.6950   38.7660   83.1520 C   0  0  0  0  0  0  0  0  0  0  0  0
   31.6630   38.2490   82.2470 C   0  0  0  0  0  0  0  0  0  0  0  0
   32.2103   36.5294   80.9979 H   0  0  0  0  0  0  0  0  0  0  0  0
   30.1873   35.1392   81.6523 H   0  0  0  0  0  0  0  0  0  0  0  0
   28.4614   36.0806   83.2575 H   0  0  0  0  0  0  0  0  0  0  0  0
   26.1317   41.4874   88.5686 H   0  0  0  0  0  0  0  0  0  0  0  0
   24.1231   40.1876   87.7780 H   0  0  0  0  0  0  0  0  0  0  0  0
   23.6240   38.1650   86.5730 H   0  0  0  0  0  0  0  0  0  0  0  0
   23.7530   39.5343   84.0852 H   0  0  0  0  0  0  0  0  0  0  0  0
   22.8044   37.9878   84.2451 H   0  0  0  0  0  0  0  0  0  0  0  0
   21.1204   39.1318   85.0916 H   0  0  0  0  0  0  0  0  0  0  0  0
   22.2236   39.5895   86.4916 H   0  0  0  0  0  0  0  0  0  0  0  0
   21.0180   41.3710   85.0310 H   0  0  0  0  0  0  0  0  0  0  0  0
   23.6464   40.8372   83.7613 H   0  0  0  0  0  0  0  0  0  0  0  0
   22.0465   40.5559   82.9829 H   0  0  0  0  0  0  0  0  0  0  0  0
   23.0904   42.7308   82.2639 H   0  0  0  0  0  0  0  0  0  0  0  0
   21.5270   42.9712   83.1090 H   0  0  0  0  0  0  0  0  0  0  0  0
   24.2090   43.2130   84.3130 H   0  0  0  0  0  0  0  0  0  0  0  0
   23.1980   44.4520   83.9510 H   0  0  0  0  0  0  0  0  0  0  0  0
   23.1556   44.0053   86.3168 H   0  0  0  0  0  0  0  0  0  0  0  0
   21.5688   43.7014   85.5486 H   0  0  0  0  0  0  0  0  0  0  0  0
   23.7452   41.5794   86.0882 H   0  0  0  0  0  0  0  0  0  0  0  0
   22.2321   41.7805   87.0281 H   0  0  0  0  0  0  0  0  0  0  0  0
   26.4622   38.2150   81.8462 H   0  0  0  0  0  0  0  0  0  0  0  0
   25.0648   36.5442   80.5421 H   0  0  0  0  0  0  0  0  0  0  0  0
   24.0259   34.5595   81.7390 H   0  0  0  0  0  0  0  0  0  0  0  0
   24.3963   34.2124   84.2322 H   0  0  0  0  0  0  0  0  0  0  0  0
   25.7941   35.8878   85.5336 H   0  0  0  0  0  0  0  0  0  0  0  0
   30.8352   39.7725   83.5731 H   0  0  0  0  0  0  0  0  0  0  0  0
   32.5441   38.8463   81.9697 H   0  0  0  0  0  0  0  0  0  0  0  0
  1  2  2  0
  2  3  1  0
  3  4  2  0
  4  5  1  0
  5  6  1  0
  6  7  1  0
  7  8  2  0
  8  9  1  0
  9 10  2  0
 10 11  1  0
 11 12  1  0
 12 13  1  0
 13 14  1  0
 14 15  1  0
 15 16  1  0
 16 17  1  0
 17 18  1  0
 18 19  1  0
 19 20  1  0
 11 21  2  0
 21 22  1  0
 22 23  1  0
 23 24  2  0
 24 25  1  0
 25 26  2  0
 26 27  1  0
 27 28  2  0
  4 29  1  0
 29 30  2  0
 30  1  1  0
 22  5  2  0
 28 23  1  0
 21  7  1  0
 20 15  1  0
  1 31  1  0
  2 32  1  0
  3 33  1  0
  9 34  1  0
 10 35  1  0
 12 36  1  0
 13 37  1  0
 13 38  1  0
 14 39  1  0
 14 40  1  0
 15 41  1  0
 16 42  1  0
 16 43  1  0
 17 44  1  0
 17 45  1  0
 18 46  1  0
 18 47  1  0
 19 48  1  0
 19 49  1  0
 20 50  1  0
 20 51  1  0
 24 52  1  0
 25 53  1  0
 26 54  1  0
 27 55  1  0
 28 56  1  0
 29 57  1  0
 30 58  1  0
M  CHG  2  15   1  18   1
M  END
>  <meeko>  (38) 
{"free_energy": -10.177, "intermolecular_energy": -9.667, "internal_energy": -0.927}

$$$$

     RDKit          3D

 58 62  0  0  0  0  0  0  0  0999 V2000
   20.2850   36.8460   84.8340 C   0  0  0  0  0  0  0  0  0  0  0  0
   20.5190   36.6440   86.2480 C   0  0  0  0  0  0  0  0  0  0  0  0
   21.2260   37.6350   87.0090 C   0  0  0  0  0  0  0  0  0  0  0  0
   21.7070   38.8220   86.3570 C   0  0  0  0  0  0  0  0  0  0  0  0
   22.4290   39.8420   87.1840 C   0  0  0  0  0  0  0  0  0  0  0  0
   21.8310   40.4320   88.2800 O   0  0  0  0  0  0  0  0  0  0  0  0
   22.7500   41.2960   88.7830 C   0  0  0  0  0  0  0  0  0  0  0  0
   22.6060   42.1190   89.8920 N   0  0  0  0  0  0  0  0  0  0  0  0
   23.5920   42.9510   90.3150 C   0  0  0  0  0  0  0  0  0  0  0  0
   24.8380   42.9890   89.6380 C   0  0  0  0  0  0  0  0  0  0  0  0
   25.0440   42.1530   88.4810 C   0  0  0  0  0  0  0  0  0  0  0  0
   26.2390   42.1600   87.7930 N   0  0  0  0  0  0  0  0  0  0  0  0
   27.4740   41.6110   88.3380 C   0  0  0  0  0  0  0  0  0  0  0  0
   28.7100   42.4270   87.9460 C   0  0  0  0  0  0  0  0  0  0  0  0
   29.6660   41.7320   87.0490 N   0  0  0  0  0  4  0  0  0  0  0  0
   30.9230   42.5270   87.0990 C   0  0  0  0  0  0  0  0  0  0  0  0
   31.9910   41.8910   86.1890 C   0  0  0  0  0  0  0  0  0  0  0  0
   31.4530   41.7940   84.8000 N   0  0  0  0  0  4  0  0  0  0  0  0
   30.1860   40.9980   84.7490 C   0  0  0  0  0  0  0  0  0  0  0  0
   29.1410   41.6840   85.6550 C   0  0  0  0  0  0  0  0  0  0  0  0
   23.9560   41.2740   88.0420 C   0  0  0  0  0  0  0  0  0  0  0  0
   23.8380   40.3690   86.9920 C   0  0  0  0  0  0  0  0  0  0  0  0
   24.8740   40.0550   85.9760 C   0  0  0  0  0  0  0  0  0  0  0  0
   25.0390   40.8970   84.8240 C   0  0  0  0  0  0  0  0  0  0  0  0
   26.0340   40.5690   83.8460 C   0  0  0  0  0  0  0  0  0  0  0  0
   26.8570   39.3960   84.0280 C   0  0  0  0  0  0  0  0  0  0  0  0
   26.6950   38.5480   85.1880 C   0  0  0  0  0  0  0  0  0  0  0  0
   25.6990   38.8790   86.1620 C   0  0  0  0  0  0  0  0  0  0  0  0
   21.4640   38.9990   84.9350 C   0  0  0  0  0  0  0  0  0  0  0  0
   20.7620   38.0240   84.1760 C   0  0  0  0  0  0  0  0  0  0  0  0
   19.7349   36.0863   84.2593 H   0  0  0  0  0  0  0  0  0  0  0  0
   20.1547   35.7301   86.7401 H   0  0  0  0  0  0  0  0  0  0  0  0
   21.3986   37.4866   88.0852 H   0  0  0  0  0  0  0  0  0  0  0  0
   23.4237   43.5993   91.1876 H   0  0  0  0  0  0  0  0  0  0  0  0
   25.6413   43.6513   89.9929 H   0  0  0  0  0  0  0  0  0  0  0  0
   26.4360   43.1250   87.6210 H   0  0  0  0  0  0  0  0  0  0  0  0
   27.3972   41.5944   89.4352 H   0  0  0  0  0  0  0  0  0  0  0  0
   27.5989   40.6002   87.9225 H   0  0  0  0  0  0  0  0  0  0  0  0
   28.3678   43.3402   87.4371 H   0  0  0  0  0  0  0  0  0  0  0  0
   29.2555   42.6238   88.8807 H   0  0  0  0  0  0  0  0  0  0  0  0
   29.8150   40.7870   87.3380 H   0  0  0  0  0  0  0  0  0  0  0  0
   30.7183   43.5524   86.7573 H   0  0  0  0  0  0  0  0  0  0  0  0
   31.2964   42.5435   88.1335 H   0  0  0  0  0  0  0  0  0  0  0  0
   32.8962   42.5160   86.1908 H   0  0  0  0  0  0  0  0  0  0  0  0
   32.2440   40.8868   86.5598 H   0  0  0  0  0  0  0  0  0  0  0  0
   31.2660   42.7160   84.4630 H   0  0  0  0  0  0  0  0  0  0  0  0
   32.1360   41.3470   84.2220 H   0  0  0  0  0  0  0  0  0  0  0  0
   29.8129   40.9599   83.7149 H   0  0  0  0  0  0  0  0  0  0  0  0
   30.3712   39.9711   85.0972 H   0  0  0  0  0  0  0  0  0  0  0  0
   28.9553   42.7068   85.2952 H   0  0  0  0  0  0  0  0  0  0  0  0
   28.1987   41.1170   85.6315 H   0  0  0  0  0  0  0  0  0  0  0  0
   24.4062   41.7872   84.6934 H   0  0  0  0  0  0  0  0  0  0  0  0
   26.1703   41.2076   82.9608 H   0  0  0  0  0  0  0  0  0  0  0  0
   27.6173   39.1444   83.2739 H   0  0  0  0  0  0  0  0  0  0  0  0
   27.3294   37.6592   85.3206 H   0  0  0  0  0  0  0  0  0  0  0  0
   25.5608   38.2425   87.0484 H   0  0  0  0  0  0  0  0  0  0  0  0
   21.8315   39.9075   84.4354 H   0  0  0  0  0  0  0  0  0  0  0  0
   20.5880   38.1723   83.1000 H   0  0  0  0  0  0  0  0  0  0  0  0
  1  2  2  0
  2  3  1  0
  3  4  2  0
  4  5  1  0
  5  6  1  0
  6  7  1  0
  7  8  2  0
  8  9  1  0
  9 10  2  0
 10 11  1  0
 11 12  1  0
 12 13  1  0
 13 14  1  0
 14 15  1  0
 15 16  1  0
 16 17  1  0
 17 18  1  0
 18 19  1  0
 19 20  1  0
 11 21  2  0
 21 22  1  0
 22 23  1  0
 23 24  2  0
 24 25  1  0
 25 26  2  0
 26 27  1  0
 27 28  2  0
  4 29  1  0
 29 30  2  0
 30  1  1  0
 22  5  2  0
 28 23  1  0
 21  7  1  0
 20 15  1  0
  1 31  1  0
  2 32  1  0
  3 33  1  0
  9 34  1  0
 10 35  1  0
 12 36  1  0
 13 37  1  0
 13 38  1  0
 14 39  1  0
 14 40  1  0
 15 41  1  0
 16 42  1  0
 16 43  1  0
 17 44  1  0
 17 45  1  0
 18 46  1  0
 18 47  1  0
 19 48  1  0
 19 49  1  0
 20 50  1  0
 20 51  1  0
 24 52  1  0
 25 53  1  0
 26 54  1  0
 27 55  1  0
 28 56  1  0
 29 57  1  0
 30 58  1  0
M  CHG  2  15   1  18   1
M  END
>  <meeko>  (39) 
{"free_energy": -10.129, "intermolecular_energy": -8.888, "internal_energy": -1.642}

$$$$

     RDKit          3D

 58 62  0  0  0  0  0  0  0  0999 V2000
   30.3970   36.8820   82.6670 C   0  0  0  0  0  0  0  0  0  0  0  0
   29.2990   36.0370   82.2500 C   0  0  0  0  0  0  0  0  0  0  0  0
   27.9630   36.3220   82.6930 C   0  0  0  0  0  0  0  0  0  0  0  0
   27.7250   37.4450   83.5570 C   0  0  0  0  0  0  0  0  0  0  0  0
   26.3170   37.7210   83.9890 C   0  0  0  0  0  0  0  0  0  0  0  0
   25.3130   36.7920   83.8010 O   0  0  0  0  0  0  0  0  0  0  0  0
   24.1830   37.3620   84.2940 C   0  0  0  0  0  0  0  0  0  0  0  0
   22.9120   36.8060   84.3300 N   0  0  0  0  0  0  0  0  0  0  0  0
   21.8430   37.4630   84.8470 C   0  0  0  0  0  0  0  0  0  0  0  0
   21.9990   38.7590   85.4040 C   0  0  0  0  0  0  0  0  0  0  0  0
   23.2980   39.3840   85.3960 C   0  0  0  0  0  0  0  0  0  0  0  0
   23.4930   40.6430   85.9260 N   0  0  0  0  0  0  0  0  0  0  0  0
   22.4070   41.5880   86.1530 C   0  0  0  0  0  0  0  0  0  0  0  0
   22.7800   42.6910   87.1480 C   0  0  0  0  0  0  0  0  0  0  0  0
   24.1120   42.5420   87.7860 N   0  0  0  0  0  4  0  0  0  0  0  0
   23.9030   41.6630   88.9680 C   0  0  0  0  0  0  0  0  0  0  0  0
   25.2340   41.4480   89.7120 C   0  0  0  0  0  0  0  0  0  0  0  0
   25.7960   42.7750   90.1010 N   0  0  0  0  0  4  0  0  0  0  0  0
   26.0040   43.6610   88.9120 C   0  0  0  0  0  0  0  0  0  0  0  0
   24.6420   43.8670   88.2130 C   0  0  0  0  0  0  0  0  0  0  0  0
   24.4300   38.6530   84.8200 C   0  0  0  0  0  0  0  0  0  0  0  0
   25.7770   38.9670   84.6620 C   0  0  0  0  0  0  0  0  0  0  0  0
   26.4420   40.2290   85.0730 C   0  0  0  0  0  0  0  0  0  0  0  0
   27.1250   40.3130   86.3350 C   0  0  0  0  0  0  0  0  0  0  0  0
   27.7470   41.5440   86.7200 C   0  0  0  0  0  0  0  0  0  0  0  0
   27.6790   42.6880   85.8400 C   0  0  0  0  0  0  0  0  0  0  0  0
   26.9960   42.6060   84.5680 C   0  0  0  0  0  0  0  0  0  0  0  0
   26.3750   41.3740   84.1860 C   0  0  0  0  0  0  0  0  0  0  0  0
   28.8450   38.2760   83.9670 C   0  0  0  0  0  0  0  0  0  0  0  0
   30.1700   38.0010   83.5300 C   0  0  0  0  0  0  0  0  0  0  0  0
   31.4165   36.6622   82.3172 H   0  0  0  0  0  0  0  0  0  0  0  0
   29.4878   35.1753   81.5929 H   0  0  0  0  0  0  0  0  0  0  0  0
   27.1263   35.6839   82.3725 H   0  0  0  0  0  0  0  0  0  0  0  0
   20.8506   36.9887   84.8343 H   0  0  0  0  0  0  0  0  0  0  0  0
   21.1349   39.2828   85.8387 H   0  0  0  0  0  0  0  0  0  0  0  0
   24.1110   41.1020   85.2890 H   0  0  0  0  0  0  0  0  0  0  0  0
   22.1411   42.0553   85.1933 H   0  0  0  0  0  0  0  0  0  0  0  0
   21.5630   41.0270   86.5807 H   0  0  0  0  0  0  0  0  0  0  0  0
   22.7646   43.6518   86.6126 H   0  0  0  0  0  0  0  0  0  0  0  0
   22.0428   42.6300   87.9621 H   0  0  0  0  0  0  0  0  0  0  0  0
   24.7780   42.1530   87.1490 H   0  0  0  0  0  0  0  0  0  0  0  0
   23.1785   42.1347   89.6482 H   0  0  0  0  0  0  0  0  0  0  0  0
   23.5200   40.6894   88.6284 H   0  0  0  0  0  0  0  0  0  0  0  0
   25.0583   40.8436   90.6141 H   0  0  0  0  0  0  0  0  0  0  0  0
   25.9442   40.9225   89.0567 H   0  0  0  0  0  0  0  0  0  0  0  0
   25.1590   43.2230   90.7270 H   0  0  0  0  0  0  0  0  0  0  0  0
   26.6780   42.6310   90.5510 H   0  0  0  0  0  0  0  0  0  0  0  0
   26.4049   44.6321   89.2380 H   0  0  0  0  0  0  0  0  0  0  0  0
   26.7195   43.1982   88.2164 H   0  0  0  0  0  0  0  0  0  0  0  0
   23.9360   44.3389   88.9122 H   0  0  0  0  0  0  0  0  0  0  0  0
   24.7689   44.5175   87.3351 H   0  0  0  0  0  0  0  0  0  0  0  0
   27.1695   39.4380   87.0002 H   0  0  0  0  0  0  0  0  0  0  0  0
   28.2747   41.6185   87.6823 H   0  0  0  0  0  0  0  0  0  0  0  0
   28.1530   43.6337   86.1416 H   0  0  0  0  0  0  0  0  0  0  0  0
   26.9541   43.4802   83.9016 H   0  0  0  0  0  0  0  0  0  0  0  0
   25.8489   41.2963   83.2231 H   0  0  0  0  0  0  0  0  0  0  0  0
   28.6638   39.1355   84.6291 H   0  0  0  0  0  0  0  0  0  0  0  0
   31.0074   38.6384   83.8502 H   0  0  0  0  0  0  0  0  0  0  0  0
  1  2  2  0
  2  3  1  0
  3  4  2  0
  4  5  1  0
  5  6  1  0
  6  7  1  0
  7  8  2  0
  8  9  1  0
  9 10  2  0
 10 11  1  0
 11 12  1  0
 12 13  1  0
 13 14  1  0
 14 15  1  0
 15 16  1  0
 16 17  1  0
 17 18  1  0
 18 19  1  0
 19 20  1  0
 11 21  2  0
 21 22  1  0
 22 23  1  0
 23 24  2  0
 24 25  1  0
 25 26  2  0
 26 27  1  0
 27 28  2  0
  4 29  1  0
 29 30  2  0
 30  1  1  0
 22  5  2  0
 28 23  1  0
 21  7  1  0
 20 15  1  0
  1 31  1  0
  2 32  1  0
  3 33  1  0
  9 34  1  0
 10 35  1  0
 12 36  1  0
 13 37  1  0
 13 38  1  0
 14 39  1  0
 14 40  1  0
 15 41  1  0
 16 42  1  0
 16 43  1  0
 17 44  1  0
 17 45  1  0
 18 46  1  0
 18 47  1  0
 19 48  1  0
 19 49  1  0
 20 50  1  0
 20 51  1  0
 24 52  1  0
 25 53  1  0
 26 54  1  0
 27 55  1  0
 28 56  1  0
 29 57  1  0
 30 58  1  0
M  CHG  2  15   1  18   1
M  END
>  <meeko>  (40) 
{"free_energy": -10.126, "intermolecular_energy": -9.193, "internal_energy": -1.333}

$$$$

     RDKit          3D

 58 62  0  0  0  0  0  0  0  0999 V2000
   32.1430   37.9690   82.7650 C   0  0  0  0  0  0  0  0  0  0  0  0
   31.6800   39.2790   82.3600 C   0  0  0  0  0  0  0  0  0  0  0  0
   30.5530   39.8780   83.0190 C   0  0  0  0  0  0  0  0  0  0  0  0
   29.8860   39.1680   84.0740 C   0  0  0  0  0  0  0  0  0  0  0  0
   28.7220   39.8290   84.7490 C   0  0  0  0  0  0  0  0  0  0  0  0
   28.8840   40.9800   85.4950 O   0  0  0  0  0  0  0  0  0  0  0  0
   27.6480   41.2970   85.9590 C   0  0  0  0  0  0  0  0  0  0  0  0
   27.3070   42.3800   86.7580 N   0  0  0  0  0  0  0  0  0  0  0  0
   26.0340   42.6090   87.1700 C   0  0  0  0  0  0  0  0  0  0  0  0
   24.9840   41.7440   86.7680 C   0  0  0  0  0  0  0  0  0  0  0  0
   25.2800   40.6040   85.9360 C   0  0  0  0  0  0  0  0  0  0  0  0
   24.2890   39.7380   85.5240 N   0  0  0  0  0  0  0  0  0  0  0  0
   23.3650   39.0890   86.4450 C   0  0  0  0  0  0  0  0  0  0  0  0
   21.9960   39.7730   86.4910 C   0  0  0  0  0  0  0  0  0  0  0  0
   20.8840   39.0000   85.8830 N   0  0  0  0  0  4  0  0  0  0  0  0
   20.7640   37.7550   86.6900 C   0  0  0  0  0  0  0  0  0  0  0  0
   19.6330   36.8700   86.1350 C   0  0  0  0  0  0  0  0  0  0  0  0
   19.9050   36.5750   84.6970 N   0  0  0  0  0  4  0  0  0  0  0  0
   20.0290   37.8270   83.8860 C   0  0  0  0  0  0  0  0  0  0  0  0
   21.1870   38.6690   84.4630 C   0  0  0  0  0  0  0  0  0  0  0  0
   26.6670   40.3780   85.5170 C   0  0  0  0  0  0  0  0  0  0  0  0
   27.2690   39.3970   84.7350 C   0  0  0  0  0  0  0  0  0  0  0  0
   26.5930   38.2460   84.0880 C   0  0  0  0  0  0  0  0  0  0  0  0
   25.8670   37.2910   84.8790 C   0  0  0  0  0  0  0  0  0  0  0  0
   25.2340   36.1770   84.2380 C   0  0  0  0  0  0  0  0  0  0  0  0
   25.3340   36.0240   82.8050 C   0  0  0  0  0  0  0  0  0  0  0  0
   26.0610   36.9850   82.0050 C   0  0  0  0  0  0  0  0  0  0  0  0
   26.6930   38.0960   82.6500 C   0  0  0  0  0  0  0  0  0  0  0  0
   30.3670   37.8510   84.4590 C   0  0  0  0  0  0  0  0  0  0  0  0
   31.4830   37.2520   83.8140 C   0  0  0  0  0  0  0  0  0  0  0  0
   33.0114   37.5193   82.2614 H   0  0  0  0  0  0  0  0  0  0  0  0
   32.1912   39.8160   81.5474 H   0  0  0  0  0  0  0  0  0  0  0  0
   30.2025   40.8759   82.7169 H   0  0  0  0  0  0  0  0  0  0  0  0
   25.8155   43.4699   87.8190 H   0  0  0  0  0  0  0  0  0  0  0  0
   23.9506   41.9416   87.0889 H   0  0  0  0  0  0  0  0  0  0  0  0
   24.7690   38.9910   85.0650 H   0  0  0  0  0  0  0  0  0  0  0  0
   23.2261   38.0453   86.1264 H   0  0  0  0  0  0  0  0  0  0  0  0
   23.8016   39.1530   87.4526 H   0  0  0  0  0  0  0  0  0  0  0  0
   21.7441   39.9602   87.5453 H   0  0  0  0  0  0  0  0  0  0  0  0
   22.0927   40.6914   85.8933 H   0  0  0  0  0  0  0  0  0  0  0  0
   20.0330   39.5250   85.8850 H   0  0  0  0  0  0  0  0  0  0  0  0
   21.7134   37.2011   86.6472 H   0  0  0  0  0  0  0  0  0  0  0  0
   20.5327   38.0227   87.7316 H   0  0  0  0  0  0  0  0  0  0  0  0
   19.5897   35.9286   86.7024 H   0  0  0  0  0  0  0  0  0  0  0  0
   18.6709   37.3947   86.2303 H   0  0  0  0  0  0  0  0  0  0  0  0
   20.7610   36.0630   84.6310 H   0  0  0  0  0  0  0  0  0  0  0  0
   19.1490   36.0300   84.3320 H   0  0  0  0  0  0  0  0  0  0  0  0
   20.2424   37.5709   82.8377 H   0  0  0  0  0  0  0  0  0  0  0  0
   19.0898   38.3981   83.9268 H   0  0  0  0  0  0  0  0  0  0  0  0
   22.1233   38.0941   84.4099 H   0  0  0  0  0  0  0  0  0  0  0  0
   21.2992   39.5956   83.8808 H   0  0  0  0  0  0  0  0  0  0  0  0
   25.7977   37.4145   85.9698 H   0  0  0  0  0  0  0  0  0  0  0  0
   24.6743   35.4414   84.8344 H   0  0  0  0  0  0  0  0  0  0  0  0
   24.8509   35.1653   82.3158 H   0  0  0  0  0  0  0  0  0  0  0  0
   26.1275   36.8637   80.9137 H   0  0  0  0  0  0  0  0  0  0  0  0
   27.2527   38.8334   82.0560 H   0  0  0  0  0  0  0  0  0  0  0  0
   29.8562   37.3065   85.2668 H   0  0  0  0  0  0  0  0  0  0  0  0
   31.8338   36.2541   84.1158 H   0  0  0  0  0  0  0  0  0  0  0  0
  1  2  2  0
  2  3  1  0
  3  4  2  0
  4  5  1  0
  5  6  1  0
  6  7  1  0
  7  8  2  0
  8  9  1  0
  9 10  2  0
 10 11  1  0
 11 12  1  0
 12 13  1  0
 13 14  1  0
 14 15  1  0
 15 16  1  0
 16 17  1  0
 17 18  1  0
 18 19  1  0
 19 20  1  0
 11 21  2  0
 21 22  1  0
 22 23  1  0
 23 24  2  0
 24 25  1  0
 25 26  2  0
 26 27  1  0
 27 28  2  0
  4 29  1  0
 29 30  2  0
 30  1  1  0
 22  5  2  0
 28 23  1  0
 21  7  1  0
 20 15  1  0
  1 31  1  0
  2 32  1  0
  3 33  1  0
  9 34  1  0
 10 35  1  0
 12 36  1  0
 13 37  1  0
 13 38  1  0
 14 39  1  0
 14 40  1  0
 15 41  1  0
 16 42  1  0
 16 43  1  0
 17 44  1  0
 17 45  1  0
 18 46  1  0
 18 47  1  0
 19 48  1  0
 19 49  1  0
 20 50  1  0
 20 51  1  0
 24 52  1  0
 25 53  1  0
 26 54  1  0
 27 55  1  0
 28 56  1  0
 29 57  1  0
 30 58  1  0
M  CHG  2  15   1  18   1
M  END
>  <meeko>  (41) 
{"free_energy": -10.106, "intermolecular_energy": -9.6, "internal_energy": -0.898}

$$$$

     RDKit          3D

 58 62  0  0  0  0  0  0  0  0999 V2000
   19.8410   36.7390   85.9220 C   0  0  0  0  0  0  0  0  0  0  0  0
   20.7630   36.7880   87.0360 C   0  0  0  0  0  0  0  0  0  0  0  0
   21.5370   37.9740   87.2770 C   0  0  0  0  0  0  0  0  0  0  0  0
   21.3960   39.1050   86.4030 C   0  0  0  0  0  0  0  0  0  0  0  0
   22.2090   40.3300   86.6920 C   0  0  0  0  0  0  0  0  0  0  0  0
   21.6570   41.4250   87.3270 O   0  0  0  0  0  0  0  0  0  0  0  0
   22.6550   42.3410   87.4210 C   0  0  0  0  0  0  0  0  0  0  0  0
   22.5780   43.6050   87.9890 N   0  0  0  0  0  0  0  0  0  0  0  0
   23.6400   44.4490   88.0330 C   0  0  0  0  0  0  0  0  0  0  0  0
   24.8970   44.0490   87.5110 C   0  0  0  0  0  0  0  0  0  0  0  0
   25.0340   42.7440   86.9110 C   0  0  0  0  0  0  0  0  0  0  0  0
   26.2380   42.3160   86.3920 N   0  0  0  0  0  0  0  0  0  0  0  0
   26.6770   42.6290   85.0380 C   0  0  0  0  0  0  0  0  0  0  0  0
   28.0660   43.2730   85.0000 C   0  0  0  0  0  0  0  0  0  0  0  0
   29.1680   42.3730   84.5770 N   0  0  0  0  0  4  0  0  0  0  0  0
   28.5150   41.2180   83.9020 C   0  0  0  0  0  0  0  0  0  0  0  0
   29.5780   40.2110   83.4260 C   0  0  0  0  0  0  0  0  0  0  0  0
   30.3990   39.7780   84.5950 N   0  0  0  0  0  4  0  0  0  0  0  0
   31.0530   40.9390   85.2770 C   0  0  0  0  0  0  0  0  0  0  0  0
   29.9500   41.9080   85.7560 C   0  0  0  0  0  0  0  0  0  0  0  0
   23.8660   41.8600   86.8700 C   0  0  0  0  0  0  0  0  0  0  0  0
   23.6710   40.5750   86.3730 C   0  0  0  0  0  0  0  0  0  0  0  0
   24.6870   39.7220   85.7080 C   0  0  0  0  0  0  0  0  0  0  0  0
   24.5930   39.4440   84.3010 C   0  0  0  0  0  0  0  0  0  0  0  0
   25.5750   38.6060   83.6800 C   0  0  0  0  0  0  0  0  0  0  0  0
   26.6450   38.0470   84.4730 C   0  0  0  0  0  0  0  0  0  0  0  0
   26.7450   38.3280   85.8880 C   0  0  0  0  0  0  0  0  0  0  0  0
   25.7610   39.1650   86.5050 C   0  0  0  0  0  0  0  0  0  0  0  0
   20.4680   39.0290   85.2870 C   0  0  0  0  0  0  0  0  0  0  0  0
   19.6960   37.8600   85.0440 C   0  0  0  0  0  0  0  0  0  0  0  0
   19.2453   35.8308   85.7480 H   0  0  0  0  0  0  0  0  0  0  0  0
   20.8713   35.9167   87.6987 H   0  0  0  0  0  0  0  0  0  0  0  0
   22.2343   38.0157   88.1268 H   0  0  0  0  0  0  0  0  0  0  0  0
   23.5253   45.4493   88.4761 H   0  0  0  0  0  0  0  0  0  0  0  0
   25.7605   44.7285   87.5633 H   0  0  0  0  0  0  0  0  0  0  0  0
   26.1980   41.3170   86.4290 H   0  0  0  0  0  0  0  0  0  0  0  0
   26.7050   41.6977   84.4532 H   0  0  0  0  0  0  0  0  0  0  0  0
   25.9639   43.3531   84.6170 H   0  0  0  0  0  0  0  0  0  0  0  0
   28.0296   44.1196   84.2986 H   0  0  0  0  0  0  0  0  0  0  0  0
   28.2937   43.5694   86.0346 H   0  0  0  0  0  0  0  0  0  0  0  0
   29.8080   42.8430   83.9690 H   0  0  0  0  0  0  0  0  0  0  0  0
   27.8344   40.7211   84.6090 H   0  0  0  0  0  0  0  0  0  0  0  0
   27.9504   41.5829   83.0313 H   0  0  0  0  0  0  0  0  0  0  0  0
   29.0828   39.3362   82.9795 H   0  0  0  0  0  0  0  0  0  0  0  0
   30.2257   40.6841   82.6732 H   0  0  0  0  0  0  0  0  0  0  0  0
   29.8030   39.3150   85.2510 H   0  0  0  0  0  0  0  0  0  0  0  0
   31.1100   39.1520   84.2740 H   0  0  0  0  0  0  0  0  0  0  0  0
   31.6351   40.5831   86.1398 H   0  0  0  0  0  0  0  0  0  0  0  0
   31.7312   41.4533   84.5802 H   0  0  0  0  0  0  0  0  0  0  0  0
   29.2828   41.3886   86.4596 H   0  0  0  0  0  0  0  0  0  0  0  0
   30.4074   42.7707   86.2624 H   0  0  0  0  0  0  0  0  0  0  0  0
   23.7730   39.8716   83.7054 H   0  0  0  0  0  0  0  0  0  0  0  0
   25.5144   38.3891   82.6033 H   0  0  0  0  0  0  0  0  0  0  0  0
   27.3938   37.3989   83.9942 H   0  0  0  0  0  0  0  0  0  0  0  0
   27.5672   37.9038   86.4830 H   0  0  0  0  0  0  0  0  0  0  0  0
   25.8202   39.3846   87.5812 H   0  0  0  0  0  0  0  0  0  0  0  0
   20.3606   39.8942   84.6162 H   0  0  0  0  0  0  0  0  0  0  0  0
   18.9983   37.8178   84.1946 H   0  0  0  0  0  0  0  0  0  0  0  0
  1  2  2  0
  2  3  1  0
  3  4  2  0
  4  5  1  0
  5  6  1  0
  6  7  1  0
  7  8  2  0
  8  9  1  0
  9 10  2  0
 10 11  1  0
 11 12  1  0
 12 13  1  0
 13 14  1  0
 14 15  1  0
 15 16  1  0
 16 17  1  0
 17 18  1  0
 18 19  1  0
 19 20  1  0
 11 21  2  0
 21 22  1  0
 22 23  1  0
 23 24  2  0
 24 25  1  0
 25 26  2  0
 26 27  1  0
 27 28  2  0
  4 29  1  0
 29 30  2  0
 30  1  1  0
 22  5  2  0
 28 23  1  0
 21  7  1  0
 20 15  1  0
  1 31  1  0
  2 32  1  0
  3 33  1  0
  9 34  1  0
 10 35  1  0
 12 36  1  0
 13 37  1  0
 13 38  1  0
 14 39  1  0
 14 40  1  0
 15 41  1  0
 16 42  1  0
 16 43  1  0
 17 44  1  0
 17 45  1  0
 18 46  1  0
 18 47  1  0
 19 48  1  0
 19 49  1  0
 20 50  1  0
 20 51  1  0
 24 52  1  0
 25 53  1  0
 26 54  1  0
 27 55  1  0
 28 56  1  0
 29 57  1  0
 30 58  1  0
M  CHG  2  15   1  18   1
M  END
>  <meeko>  (42) 
{"free_energy": -10.062, "intermolecular_energy": -8.865, "internal_energy": -1.574}

$$$$

     RDKit          3D

 58 62  0  0  0  0  0  0  0  0999 V2000
   30.5990   42.2120   85.8000 C   0  0  0  0  0  0  0  0  0  0  0  0
   31.0700   41.1720   84.9120 C   0  0  0  0  0  0  0  0  0  0  0  0
   30.1670   40.1530   84.4540 C   0  0  0  0  0  0  0  0  0  0  0  0
   28.7980   40.1700   84.8900 C   0  0  0  0  0  0  0  0  0  0  0  0
   27.8800   39.1000   84.3820 C   0  0  0  0  0  0  0  0  0  0  0  0
   28.3480   38.0650   83.5960 O   0  0  0  0  0  0  0  0  0  0  0  0
   27.2660   37.2950   83.3150 C   0  0  0  0  0  0  0  0  0  0  0  0
   27.2400   36.1350   82.5530 N   0  0  0  0  0  0  0  0  0  0  0  0
   26.0990   35.4340   82.3300 C   0  0  0  0  0  0  0  0  0  0  0  0
   24.8730   35.8610   82.9020 C   0  0  0  0  0  0  0  0  0  0  0  0
   24.8410   37.0580   83.7040 C   0  0  0  0  0  0  0  0  0  0  0  0
   23.6700   37.5080   84.2780 N   0  0  0  0  0  0  0  0  0  0  0  0
   22.4660   36.6930   84.3740 C   0  0  0  0  0  0  0  0  0  0  0  0
   21.2520   37.3490   83.7100 C   0  0  0  0  0  0  0  0  0  0  0  0
   20.4200   38.1900   84.6060 N   0  0  0  0  0  4  0  0  0  0  0  0
   21.0520   39.5370   84.6040 C   0  0  0  0  0  0  0  0  0  0  0  0
   20.2650   40.4950   85.5170 C   0  0  0  0  0  0  0  0  0  0  0  0
   20.1990   39.9160   86.8910 N   0  0  0  0  0  4  0  0  0  0  0  0
   19.5670   38.5590   86.8940 C   0  0  0  0  0  0  0  0  0  0  0  0
   20.4010   37.6300   85.9860 C   0  0  0  0  0  0  0  0  0  0  0  0
   26.0890   37.7980   83.9180 C   0  0  0  0  0  0  0  0  0  0  0  0
   26.3890   38.9610   84.6210 C   0  0  0  0  0  0  0  0  0  0  0  0
   25.4340   39.8010   85.3860 C   0  0  0  0  0  0  0  0  0  0  0  0
   25.1650   39.5180   86.7690 C   0  0  0  0  0  0  0  0  0  0  0  0
   24.2280   40.3300   87.4870 C   0  0  0  0  0  0  0  0  0  0  0  0
   23.5630   41.4210   86.8130 C   0  0  0  0  0  0  0  0  0  0  0  0
   23.8340   41.7110   85.4230 C   0  0  0  0  0  0  0  0  0  0  0  0
   24.7700   40.8960   84.7090 C   0  0  0  0  0  0  0  0  0  0  0  0
   28.3500   41.2220   85.7860 C   0  0  0  0  0  0  0  0  0  0  0  0
   29.2380   42.2360   86.2410 C   0  0  0  0  0  0  0  0  0  0  0  0
   31.2948   42.9932   86.1401 H   0  0  0  0  0  0  0  0  0  0  0  0
   32.1208   41.1613   84.5870 H   0  0  0  0  0  0  0  0  0  0  0  0
   30.5214   39.3646   83.7737 H   0  0  0  0  0  0  0  0  0  0  0  0
   26.1252   34.5307   81.7029 H   0  0  0  0  0  0  0  0  0  0  0  0
   23.9527   35.2822   82.7345 H   0  0  0  0  0  0  0  0  0  0  0  0
   23.4040   38.3060   83.7370 H   0  0  0  0  0  0  0  0  0  0  0  0
   22.6555   35.7267   83.8838 H   0  0  0  0  0  0  0  0  0  0  0  0
   22.2334   36.5696   85.4420 H   0  0  0  0  0  0  0  0  0  0  0  0
   21.6150   37.9833   82.8879 H   0  0  0  0  0  0  0  0  0  0  0  0
   20.6042   36.5251   83.3758 H   0  0  0  0  0  0  0  0  0  0  0  0
   19.4710   38.2260   84.2930 H   0  0  0  0  0  0  0  0  0  0  0  0
   22.0860   39.4537   84.9699 H   0  0  0  0  0  0  0  0  0  0  0  0
   21.0474   39.9341   83.5782 H   0  0  0  0  0  0  0  0  0  0  0  0
   20.7724   41.4703   85.5522 H   0  0  0  0  0  0  0  0  0  0  0  0
   19.2471   40.6304   85.1226 H   0  0  0  0  0  0  0  0  0  0  0  0
   21.1290   39.8370   87.2510 H   0  0  0  0  0  0  0  0  0  0  0  0
   19.6560   40.5240   87.4710 H   0  0  0  0  0  0  0  0  0  0  0  0
   19.5502   38.1594   87.9187 H   0  0  0  0  0  0  0  0  0  0  0  0
   18.5339   38.6228   86.5217 H   0  0  0  0  0  0  0  0  0  0  0  0
   21.4292   37.5637   86.3713 H   0  0  0  0  0  0  0  0  0  0  0  0
   19.9548   36.6247   85.9730 H   0  0  0  0  0  0  0  0  0  0  0  0
   25.6750   38.6837   87.2729 H   0  0  0  0  0  0  0  0  0  0  0  0
   24.0160   40.1236   88.5465 H   0  0  0  0  0  0  0  0  0  0  0  0
   22.8403   42.0397   87.3652 H   0  0  0  0  0  0  0  0  0  0  0  0
   23.3272   42.5477   84.9199 H   0  0  0  0  0  0  0  0  0  0  0  0
   24.9842   41.1008   83.6497 H   0  0  0  0  0  0  0  0  0  0  0  0
   27.3019   41.2348   86.1197 H   0  0  0  0  0  0  0  0  0  0  0  0
   28.8842   43.0254   86.9205 H   0  0  0  0  0  0  0  0  0  0  0  0
  1  2  2  0
  2  3  1  0
  3  4  2  0
  4  5  1  0
  5  6  1  0
  6  7  1  0
  7  8  2  0
  8  9  1  0
  9 10  2  0
 10 11  1  0
 11 12  1  0
 12 13  1  0
 13 14  1  0
 14 15  1  0
 15 16  1  0
 16 17  1  0
 17 18  1  0
 18 19  1  0
 19 20  1  0
 11 21  2  0
 21 22  1  0
 22 23  1  0
 23 24  2  0
 24 25  1  0
 25 26  2  0
 26 27  1  0
 27 28  2  0
  4 29  1  0
 29 30  2  0
 30  1  1  0
 22  5  2  0
 28 23  1  0
 21  7  1  0
 20 15  1  0
  1 31  1  0
  2 32  1  0
  3 33  1  0
  9 34  1  0
 10 35  1  0
 12 36  1  0
 13 37  1  0
 13 38  1  0
 14 39  1  0
 14 40  1  0
 15 41  1  0
 16 42  1  0
 16 43  1  0
 17 44  1  0
 17 45  1  0
 18 46  1  0
 18 47  1  0
 19 48  1  0
 19 49  1  0
 20 50  1  0
 20 51  1  0
 24 52  1  0
 25 53  1  0
 26 54  1  0
 27 55  1  0
 28 56  1  0
 29 57  1  0
 30 58  1  0
M  CHG  2  15   1  18   1
M  END
>  <meeko>  (43) 
{"free_energy": -10.009, "intermolecular_energy": -8.932, "internal_energy": -1.435}

$$$$

     RDKit          3D

 58 62  0  0  0  0  0  0  0  0999 V2000
   20.7310   36.9820   83.4940 C   0  0  0  0  0  0  0  0  0  0  0  0
   20.2280   38.3090   83.7800 C   0  0  0  0  0  0  0  0  0  0  0  0
   20.8670   39.1210   84.7780 C   0  0  0  0  0  0  0  0  0  0  0  0
   22.0000   38.6060   85.4950 C   0  0  0  0  0  0  0  0  0  0  0  0
   22.6500   39.4840   86.5200 C   0  0  0  0  0  0  0  0  0  0  0  0
   21.9510   39.9450   87.6180 O   0  0  0  0  0  0  0  0  0  0  0  0
   22.8280   40.7050   88.3230 C   0  0  0  0  0  0  0  0  0  0  0  0
   22.5830   41.3800   89.5110 N   0  0  0  0  0  0  0  0  0  0  0  0
   23.5340   42.1170   90.1400 C   0  0  0  0  0  0  0  0  0  0  0  0
   24.8450   42.2040   89.6040 C   0  0  0  0  0  0  0  0  0  0  0  0
   25.1550   41.5210   88.3720 C   0  0  0  0  0  0  0  0  0  0  0  0
   26.4170   41.5800   87.8170 N   0  0  0  0  0  0  0  0  0  0  0  0
   27.3940   42.6030   88.1670 C   0  0  0  0  0  0  0  0  0  0  0  0
   27.9320   43.3520   86.9440 C   0  0  0  0  0  0  0  0  0  0  0  0
   29.3540   43.0820   86.6140 N   0  0  0  0  0  4  0  0  0  0  0  0
   29.3480   41.8720   85.7470 C   0  0  0  0  0  0  0  0  0  0  0  0
   30.7880   41.4980   85.3490 C   0  0  0  0  0  0  0  0  0  0  0  0
   31.5980   41.2890   86.5860 N   0  0  0  0  0  4  0  0  0  0  0  0
   31.6010   42.5040   87.4610 C   0  0  0  0  0  0  0  0  0  0  0  0
   30.1430   42.8270   87.8520 C   0  0  0  0  0  0  0  0  0  0  0  0
   24.1040   40.7420   87.7120 C   0  0  0  0  0  0  0  0  0  0  0  0
   24.0800   39.9870   86.5440 C   0  0  0  0  0  0  0  0  0  0  0  0
   25.2110   39.7760   85.6060 C   0  0  0  0  0  0  0  0  0  0  0  0
   25.5010   40.7470   84.5870 C   0  0  0  0  0  0  0  0  0  0  0  0
   26.5860   40.5180   83.6810 C   0  0  0  0  0  0  0  0  0  0  0  0
   27.3760   39.3140   83.7990 C   0  0  0  0  0  0  0  0  0  0  0  0
   27.0900   38.3360   84.8250 C   0  0  0  0  0  0  0  0  0  0  0  0
   26.0030   38.5680   85.7280 C   0  0  0  0  0  0  0  0  0  0  0  0
   22.4830   37.2680   85.1940 C   0  0  0  0  0  0  0  0  0  0  0  0
   21.8580   36.4590   84.2050 C   0  0  0  0  0  0  0  0  0  0  0  0
   20.2421   36.3692   82.7223 H   0  0  0  0  0  0  0  0  0  0  0  0
   19.3558   38.6959   83.2327 H   0  0  0  0  0  0  0  0  0  0  0  0
   20.4905   40.1321   84.9920 H   0  0  0  0  0  0  0  0  0  0  0  0
   23.2869   42.6496   91.0702 H   0  0  0  0  0  0  0  0  0  0  0  0
   25.6188   42.7878   90.1240 H   0  0  0  0  0  0  0  0  0  0  0  0
   26.2650   41.6890   86.8350 H   0  0  0  0  0  0  0  0  0  0  0  0
   26.9167   43.3288   88.8419 H   0  0  0  0  0  0  0  0  0  0  0  0
   28.2451   42.0981   88.6474 H   0  0  0  0  0  0  0  0  0  0  0  0
   27.3208   43.0679   86.0747 H   0  0  0  0  0  0  0  0  0  0  0  0
   27.8732   44.4224   87.1907 H   0  0  0  0  0  0  0  0  0  0  0  0
   29.7750   43.8640   86.1560 H   0  0  0  0  0  0  0  0  0  0  0  0
   28.8929   41.0340   86.2953 H   0  0  0  0  0  0  0  0  0  0  0  0
   28.7670   42.0841   84.8374 H   0  0  0  0  0  0  0  0  0  0  0  0
   30.7774   40.5723   84.7549 H   0  0  0  0  0  0  0  0  0  0  0  0
   31.2291   42.3080   84.7495 H   0  0  0  0  0  0  0  0  0  0  0  0
   31.2080   40.5250   87.0990 H   0  0  0  0  0  0  0  0  0  0  0  0
   32.5400   41.0820   86.3220 H   0  0  0  0  0  0  0  0  0  0  0  0
   32.1937   42.3080   88.3667 H   0  0  0  0  0  0  0  0  0  0  0  0
   32.0455   43.3550   86.9242 H   0  0  0  0  0  0  0  0  0  0  0  0
   29.7098   41.9750   88.3965 H   0  0  0  0  0  0  0  0  0  0  0  0
   30.1198   43.7174   88.4975 H   0  0  0  0  0  0  0  0  0  0  0  0
   24.8935   41.6602   84.5035 H   0  0  0  0  0  0  0  0  0  0  0  0
   26.8171   41.2557   82.8984 H   0  0  0  0  0  0  0  0  0  0  0  0
   28.2062   39.1390   83.0989 H   0  0  0  0  0  0  0  0  0  0  0  0
   27.7001   37.4247   84.9108 H   0  0  0  0  0  0  0  0  0  0  0  0
   25.7698   37.8320   86.5116 H   0  0  0  0  0  0  0  0  0  0  0  0
   23.3505   36.8729   85.7430 H   0  0  0  0  0  0  0  0  0  0  0  0
   22.2345   35.4480   83.9900 H   0  0  0  0  0  0  0  0  0  0  0  0
  1  2  2  0
  2  3  1  0
  3  4  2  0
  4  5  1  0
  5  6  1  0
  6  7  1  0
  7  8  2  0
  8  9  1  0
  9 10  2  0
 10 11  1  0
 11 12  1  0
 12 13  1  0
 13 14  1  0
 14 15  1  0
 15 16  1  0
 16 17  1  0
 17 18  1  0
 18 19  1  0
 19 20  1  0
 11 21  2  0
 21 22  1  0
 22 23  1  0
 23 24  2  0
 24 25  1  0
 25 26  2  0
 26 27  1  0
 27 28  2  0
  4 29  1  0
 29 30  2  0
 30  1  1  0
 22  5  2  0
 28 23  1  0
 21  7  1  0
 20 15  1  0
  1 31  1  0
  2 32  1  0
  3 33  1  0
  9 34  1  0
 10 35  1  0
 12 36  1  0
 13 37  1  0
 13 38  1  0
 14 39  1  0
 14 40  1  0
 15 41  1  0
 16 42  1  0
 16 43  1  0
 17 44  1  0
 17 45  1  0
 18 46  1  0
 18 47  1  0
 19 48  1  0
 19 49  1  0
 20 50  1  0
 20 51  1  0
 24 52  1  0
 25 53  1  0
 26 54  1  0
 27 55  1  0
 28 56  1  0
 29 57  1  0
 30 58  1  0
M  CHG  2  15   1  18   1
M  END
>  <meeko>  (44) 
{"free_energy": -9.986, "intermolecular_energy": -8.712, "internal_energy": -1.625}

$$$$

     RDKit          3D

 58 62  0  0  0  0  0  0  0  0999 V2000
   21.3450   42.3950   90.6360 C   0  0  0  0  0  0  0  0  0  0  0  0
   22.2980   41.3330   90.3950 C   0  0  0  0  0  0  0  0  0  0  0  0
   23.3620   41.5230   89.4480 C   0  0  0  0  0  0  0  0  0  0  0  0
   23.4670   42.7670   88.7370 C   0  0  0  0  0  0  0  0  0  0  0  0
   24.5960   42.9360   87.7670 C   0  0  0  0  0  0  0  0  0  0  0  0
   25.5770   43.8880   87.9650 O   0  0  0  0  0  0  0  0  0  0  0  0
   26.4250   43.7720   86.9110 C   0  0  0  0  0  0  0  0  0  0  0  0
   27.5700   44.5190   86.6720 N   0  0  0  0  0  0  0  0  0  0  0  0
   28.3540   44.3230   85.5810 C   0  0  0  0  0  0  0  0  0  0  0  0
   28.0350   43.3080   84.6420 C   0  0  0  0  0  0  0  0  0  0  0  0
   26.8570   42.4990   84.8420 C   0  0  0  0  0  0  0  0  0  0  0  0
   26.5110   41.5030   83.9540 N   0  0  0  0  0  0  0  0  0  0  0  0
   27.4230   40.4380   83.5560 C   0  0  0  0  0  0  0  0  0  0  0  0
   27.6180   39.3850   84.6510 C   0  0  0  0  0  0  0  0  0  0  0  0
   27.6020   37.9770   84.1820 N   0  0  0  0  0  4  0  0  0  0  0  0
   28.8650   37.7870   83.4190 C   0  0  0  0  0  0  0  0  0  0  0  0
   28.9470   36.3480   82.8760 C   0  0  0  0  0  0  0  0  0  0  0  0
   27.7450   36.0740   82.0350 N   0  0  0  0  0  4  0  0  0  0  0  0
   26.4730   36.2690   82.8010 C   0  0  0  0  0  0  0  0  0  0  0  0
   26.4240   37.7280   83.3030 C   0  0  0  0  0  0  0  0  0  0  0  0
   26.0260   42.7430   86.0250 C   0  0  0  0  0  0  0  0  0  0  0  0
   24.8560   42.1540   86.4950 C   0  0  0  0  0  0  0  0  0  0  0  0
   24.1070   41.0450   85.8530 C   0  0  0  0  0  0  0  0  0  0  0  0
   23.1170   41.3220   84.8490 C   0  0  0  0  0  0  0  0  0  0  0  0
   22.3930   40.2390   84.2530 C   0  0  0  0  0  0  0  0  0  0  0  0
   22.6630   38.8820   84.6690 C   0  0  0  0  0  0  0  0  0  0  0  0
   23.6600   38.5990   85.6770 C   0  0  0  0  0  0  0  0  0  0  0  0
   24.3810   39.6850   86.2710 C   0  0  0  0  0  0  0  0  0  0  0  0
   22.4940   43.8160   88.9930 C   0  0  0  0  0  0  0  0  0  0  0  0
   21.4400   43.6370   89.9310 C   0  0  0  0  0  0  0  0  0  0  0  0
   20.5386   42.2461   91.3692 H   0  0  0  0  0  0  0  0  0  0  0  0
   22.2079   40.3800   90.9369 H   0  0  0  0  0  0  0  0  0  0  0  0
   24.0922   40.7202   89.2684 H   0  0  0  0  0  0  0  0  0  0  0  0
   29.2411   44.9543   85.4241 H   0  0  0  0  0  0  0  0  0  0  0  0
   28.6811   43.1391   83.7679 H   0  0  0  0  0  0  0  0  0  0  0  0
   26.2790   41.9780   83.1060 H   0  0  0  0  0  0  0  0  0  0  0  0
   27.0172   39.9437   82.6610 H   0  0  0  0  0  0  0  0  0  0  0  0
   28.4030   40.8970   83.3589 H   0  0  0  0  0  0  0  0  0  0  0  0
   28.5883   39.5719   85.1343 H   0  0  0  0  0  0  0  0  0  0  0  0
   26.7609   39.4901   85.3325 H   0  0  0  0  0  0  0  0  0  0  0  0
   27.5340   37.3390   84.9490 H   0  0  0  0  0  0  0  0  0  0  0  0
   28.8912   38.4949   82.5775 H   0  0  0  0  0  0  0  0  0  0  0  0
   29.7192   37.9674   84.0882 H   0  0  0  0  0  0  0  0  0  0  0  0
   29.8561   36.2354   82.2670 H   0  0  0  0  0  0  0  0  0  0  0  0
   28.9824   35.6370   83.7146 H   0  0  0  0  0  0  0  0  0  0  0  0
   27.7490   36.7010   81.2560 H   0  0  0  0  0  0  0  0  0  0  0  0
   27.7850   35.1270   81.7150 H   0  0  0  0  0  0  0  0  0  0  0  0
   25.6113   36.0725   82.1461 H   0  0  0  0  0  0  0  0  0  0  0  0
   26.4356   35.5750   83.6536 H   0  0  0  0  0  0  0  0  0  0  0  0
   26.4525   38.4149   82.4443 H   0  0  0  0  0  0  0  0  0  0  0  0
   25.4955   37.8962   83.8683 H   0  0  0  0  0  0  0  0  0  0  0  0
   22.9164   42.3585   84.5402 H   0  0  0  0  0  0  0  0  0  0  0  0
   21.6347   40.4397   83.4819 H   0  0  0  0  0  0  0  0  0  0  0  0
   22.1024   38.0529   84.2126 H   0  0  0  0  0  0  0  0  0  0  0  0
   23.8625   37.5623   85.9841 H   0  0  0  0  0  0  0  0  0  0  0  0
   25.1402   39.4871   87.0420 H   0  0  0  0  0  0  0  0  0  0  0  0
   22.5746   44.7690   88.4495 H   0  0  0  0  0  0  0  0  0  0  0  0
   20.7100   44.4397   90.1117 H   0  0  0  0  0  0  0  0  0  0  0  0
  1  2  2  0
  2  3  1  0
  3  4  2  0
  4  5  1  0
  5  6  1  0
  6  7  1  0
  7  8  2  0
  8  9  1  0
  9 10  2  0
 10 11  1  0
 11 12  1  0
 12 13  1  0
 13 14  1  0
 14 15  1  0
 15 16  1  0
 16 17  1  0
 17 18  1  0
 18 19  1  0
 19 20  1  0
 11 21  2  0
 21 22  1  0
 22 23  1  0
 23 24  2  0
 24 25  1  0
 25 26  2  0
 26 27  1  0
 27 28  2  0
  4 29  1  0
 29 30  2  0
 30  1  1  0
 22  5  2  0
 28 23  1  0
 21  7  1  0
 20 15  1  0
  1 31  1  0
  2 32  1  0
  3 33  1  0
  9 34  1  0
 10 35  1  0
 12 36  1  0
 13 37  1  0
 13 38  1  0
 14 39  1  0
 14 40  1  0
 15 41  1  0
 16 42  1  0
 16 43  1  0
 17 44  1  0
 17 45  1  0
 18 46  1  0
 18 47  1  0
 19 48  1  0
 19 49  1  0
 20 50  1  0
 20 51  1  0
 24 52  1  0
 25 53  1  0
 26 54  1  0
 27 55  1  0
 28 56  1  0
 29 57  1  0
 30 58  1  0
M  CHG  2  15   1  18   1
M  END
>  <meeko>  (45) 
{"free_energy": -9.982, "intermolecular_energy": -8.56, "internal_energy": -1.771}

$$$$

     RDKit          3D

 58 62  0  0  0  0  0  0  0  0999 V2000
   19.8400   36.3540   86.0880 C   0  0  0  0  0  0  0  0  0  0  0  0
   19.8100   37.1380   84.8720 C   0  0  0  0  0  0  0  0  0  0  0  0
   20.8200   38.1300   84.6310 C   0  0  0  0  0  0  0  0  0  0  0  0
   21.8530   38.3450   85.6070 C   0  0  0  0  0  0  0  0  0  0  0  0
   22.8980   39.3790   85.3170 C   0  0  0  0  0  0  0  0  0  0  0  0
   22.7320   40.6950   85.7010 O   0  0  0  0  0  0  0  0  0  0  0  0
   23.8470   41.3470   85.2820 C   0  0  0  0  0  0  0  0  0  0  0  0
   24.1380   42.6940   85.4430 N   0  0  0  0  0  0  0  0  0  0  0  0
   25.2880   43.2510   84.9850 C   0  0  0  0  0  0  0  0  0  0  0  0
   26.2620   42.4510   84.3340 C   0  0  0  0  0  0  0  0  0  0  0  0
   26.0130   41.0440   84.1410 C   0  0  0  0  0  0  0  0  0  0  0  0
   26.9330   40.2310   83.5130 N   0  0  0  0  0  0  0  0  0  0  0  0
   28.3730   40.4160   83.6350 C   0  0  0  0  0  0  0  0  0  0  0  0
   28.9360   39.8410   84.9380 C   0  0  0  0  0  0  0  0  0  0  0  0
   29.9590   40.6830   85.6090 N   0  0  0  0  0  4  0  0  0  0  0  0
   29.4710   42.0840   85.4970 C   0  0  0  0  0  0  0  0  0  0  0  0
   30.4720   43.0490   86.1610 C   0  0  0  0  0  0  0  0  0  0  0  0
   31.8110   42.8760   85.5250 N   0  0  0  0  0  4  0  0  0  0  0  0
   32.3010   41.4660   85.6340 C   0  0  0  0  0  0  0  0  0  0  0  0
   31.2810   40.5400   84.9360 C   0  0  0  0  0  0  0  0  0  0  0  0
   24.7570   40.4750   84.6380 C   0  0  0  0  0  0  0  0  0  0  0  0
   24.2260   39.1890   84.6120 C   0  0  0  0  0  0  0  0  0  0  0  0
   24.8600   37.9850   84.0200 C   0  0  0  0  0  0  0  0  0  0  0  0
   26.2570   37.7220   84.2310 C   0  0  0  0  0  0  0  0  0  0  0  0
   26.8550   36.5630   83.6380 C   0  0  0  0  0  0  0  0  0  0  0  0
   26.0500   35.6740   82.8330 C   0  0  0  0  0  0  0  0  0  0  0  0
   24.6440   35.9330   82.6210 C   0  0  0  0  0  0  0  0  0  0  0  0
   24.0500   37.0930   83.2150 C   0  0  0  0  0  0  0  0  0  0  0  0
   21.8570   37.5490   86.8230 C   0  0  0  0  0  0  0  0  0  0  0  0
   20.8630   36.5630   87.0670 C   0  0  0  0  0  0  0  0  0  0  0  0
   19.0685   35.5894   86.2617 H   0  0  0  0  0  0  0  0  0  0  0  0
   19.0130   36.9740   84.1318 H   0  0  0  0  0  0  0  0  0  0  0  0
   20.8032   38.7223   83.7042 H   0  0  0  0  0  0  0  0  0  0  0  0
   25.4656   44.3282   85.1193 H   0  0  0  0  0  0  0  0  0  0  0  0
   27.2008   42.9010   83.9789 H   0  0  0  0  0  0  0  0  0  0  0  0
   26.7390   40.3230   82.5360 H   0  0  0  0  0  0  0  0  0  0  0  0
   28.8649   39.9151   82.7882 H   0  0  0  0  0  0  0  0  0  0  0  0
   28.5692   41.4984   83.6382 H   0  0  0  0  0  0  0  0  0  0  0  0
   28.0990   39.6996   85.6376 H   0  0  0  0  0  0  0  0  0  0  0  0
   29.4425   38.9035   84.6650 H   0  0  0  0  0  0  0  0  0  0  0  0
   30.0860   40.4100   86.5620 H   0  0  0  0  0  0  0  0  0  0  0  0
   29.3621   42.3473   84.4345 H   0  0  0  0  0  0  0  0  0  0  0  0
   28.4992   42.1680   86.0054 H   0  0  0  0  0  0  0  0  0  0  0  0
   30.1304   44.0857   86.0245 H   0  0  0  0  0  0  0  0  0  0  0  0
   30.5411   42.8295   87.2367 H   0  0  0  0  0  0  0  0  0  0  0  0
   31.7410   43.1180   84.5580 H   0  0  0  0  0  0  0  0  0  0  0  0
   32.4640   43.4790   85.9840 H   0  0  0  0  0  0  0  0  0  0  0  0
   33.2817   41.3746   85.1441 H   0  0  0  0  0  0  0  0  0  0  0  0
   32.4061   41.1832   86.6918 H   0  0  0  0  0  0  0  0  0  0  0  0
   31.1889   40.8239   83.8773 H   0  0  0  0  0  0  0  0  0  0  0  0
   31.6208   39.4958   85.0005 H   0  0  0  0  0  0  0  0  0  0  0  0
   26.8629   38.4058   84.8436 H   0  0  0  0  0  0  0  0  0  0  0  0
   27.9229   36.3510   83.7951 H   0  0  0  0  0  0  0  0  0  0  0  0
   26.5134   34.7877   82.3750 H   0  0  0  0  0  0  0  0  0  0  0  0
   24.0375   35.2475   82.0109 H   0  0  0  0  0  0  0  0  0  0  0  0
   22.9820   37.3062   83.0606 H   0  0  0  0  0  0  0  0  0  0  0  0
   22.6467   37.7133   87.5709 H   0  0  0  0  0  0  0  0  0  0  0  0
   20.8796   35.9700   87.9933 H   0  0  0  0  0  0  0  0  0  0  0  0
  1  2  2  0
  2  3  1  0
  3  4  2  0
  4  5  1  0
  5  6  1  0
  6  7  1  0
  7  8  2  0
  8  9  1  0
  9 10  2  0
 10 11  1  0
 11 12  1  0
 12 13  1  0
 13 14  1  0
 14 15  1  0
 15 16  1  0
 16 17  1  0
 17 18  1  0
 18 19  1  0
 19 20  1  0
 11 21  2  0
 21 22  1  0
 22 23  1  0
 23 24  2  0
 24 25  1  0
 25 26  2  0
 26 27  1  0
 27 28  2  0
  4 29  1  0
 29 30  2  0
 30  1  1  0
 22  5  2  0
 28 23  1  0
 21  7  1  0
 20 15  1  0
  1 31  1  0
  2 32  1  0
  3 33  1  0
  9 34  1  0
 10 35  1  0
 12 36  1  0
 13 37  1  0
 13 38  1  0
 14 39  1  0
 14 40  1  0
 15 41  1  0
 16 42  1  0
 16 43  1  0
 17 44  1  0
 17 45  1  0
 18 46  1  0
 18 47  1  0
 19 48  1  0
 19 49  1  0
 20 50  1  0
 20 51  1  0
 24 52  1  0
 25 53  1  0
 26 54  1  0
 27 55  1  0
 28 56  1  0
 29 57  1  0
 30 58  1  0
M  CHG  2  15   1  18   1
M  END
>  <meeko>  (46) 
{"free_energy": -9.797, "intermolecular_energy": -9.783, "internal_energy": -0.298}

$$$$

     RDKit          3D

 58 62  0  0  0  0  0  0  0  0999 V2000
   20.4890   37.1640   83.5870 C   0  0  0  0  0  0  0  0  0  0  0  0
   21.5830   36.6300   84.3700 C   0  0  0  0  0  0  0  0  0  0  0  0
   22.2280   37.4510   85.3560 C   0  0  0  0  0  0  0  0  0  0  0  0
   21.7890   38.8040   85.5530 C   0  0  0  0  0  0  0  0  0  0  0  0
   22.4760   39.6280   86.5990 C   0  0  0  0  0  0  0  0  0  0  0  0
   21.7840   40.1410   87.6790 O   0  0  0  0  0  0  0  0  0  0  0  0
   22.6970   40.8280   88.4110 C   0  0  0  0  0  0  0  0  0  0  0  0
   22.4720   41.5190   89.5940 N   0  0  0  0  0  0  0  0  0  0  0  0
   23.4590   42.1780   90.2530 C   0  0  0  0  0  0  0  0  0  0  0  0
   24.7880   42.1610   89.7560 C   0  0  0  0  0  0  0  0  0  0  0  0
   25.0800   41.4580   88.5310 C   0  0  0  0  0  0  0  0  0  0  0  0
   26.3570   41.4170   88.0130 N   0  0  0  0  0  0  0  0  0  0  0  0
   27.4950   42.0690   88.6490 C   0  0  0  0  0  0  0  0  0  0  0  0
   28.1740   43.0970   87.7390 C   0  0  0  0  0  0  0  0  0  0  0  0
   27.4370   43.4180   86.4900 N   0  0  0  0  0  4  0  0  0  0  0  0
   28.4520   43.4040   85.4030 C   0  0  0  0  0  0  0  0  0  0  0  0
   27.7890   43.7360   84.0530 C   0  0  0  0  0  0  0  0  0  0  0  0
   27.1060   45.0590   84.1560 N   0  0  0  0  0  4  0  0  0  0  0  0
   26.0870   45.0750   85.2530 C   0  0  0  0  0  0  0  0  0  0  0  0
   26.8000   44.7620   86.5860 C   0  0  0  0  0  0  0  0  0  0  0  0
   23.9900   40.7650   87.8380 C   0  0  0  0  0  0  0  0  0  0  0  0
   23.9400   40.0150   86.6670 C   0  0  0  0  0  0  0  0  0  0  0  0
   25.0780   39.7170   85.7610 C   0  0  0  0  0  0  0  0  0  0  0  0
   25.8450   38.5130   85.9320 C   0  0  0  0  0  0  0  0  0  0  0  0
   26.9500   38.2510   85.0590 C   0  0  0  0  0  0  0  0  0  0  0  0
   27.2830   39.1980   84.0200 C   0  0  0  0  0  0  0  0  0  0  0  0
   26.5110   40.4080   83.8430 C   0  0  0  0  0  0  0  0  0  0  0  0
   25.4080   40.6680   84.7190 C   0  0  0  0  0  0  0  0  0  0  0  0
   20.6920   39.3190   84.7500 C   0  0  0  0  0  0  0  0  0  0  0  0
   20.0460   38.5120   83.7740 C   0  0  0  0  0  0  0  0  0  0  0  0
   19.9927   36.5269   82.8401 H   0  0  0  0  0  0  0  0  0  0  0  0
   21.9203   35.5953   84.2098 H   0  0  0  0  0  0  0  0  0  0  0  0
   23.0547   37.0453   85.9577 H   0  0  0  0  0  0  0  0  0  0  0  0
   23.2274   42.7280   91.1770 H   0  0  0  0  0  0  0  0  0  0  0  0
   25.5899   42.6803   90.3012 H   0  0  0  0  0  0  0  0  0  0  0  0
   26.2860   41.8390   87.1090 H   0  0  0  0  0  0  0  0  0  0  0  0
   27.1444   42.5808   89.5574 H   0  0  0  0  0  0  0  0  0  0  0  0
   28.2365   41.2901   88.8803 H   0  0  0  0  0  0  0  0  0  0  0  0
   28.2977   44.0287   88.3105 H   0  0  0  0  0  0  0  0  0  0  0  0
   29.1266   42.6456   87.4248 H   0  0  0  0  0  0  0  0  0  0  0  0
   26.7040   42.7600   86.3210 H   0  0  0  0  0  0  0  0  0  0  0  0
   29.2281   44.1526   85.6207 H   0  0  0  0  0  0  0  0  0  0  0  0
   28.9027   42.4022   85.3452 H   0  0  0  0  0  0  0  0  0  0  0  0
   28.5566   43.7781   83.2662 H   0  0  0  0  0  0  0  0  0  0  0  0
   27.0534   42.9581   83.8004 H   0  0  0  0  0  0  0  0  0  0  0  0
   27.7930   45.7610   84.3460 H   0  0  0  0  0  0  0  0  0  0  0  0
   26.6470   45.2520   83.2890 H   0  0  0  0  0  0  0  0  0  0  0  0
   25.6160   46.0675   85.3079 H   0  0  0  0  0  0  0  0  0  0  0  0
   25.3081   44.3237   85.0559 H   0  0  0  0  0  0  0  0  0  0  0  0
   27.5706   45.5227   86.7798 H   0  0  0  0  0  0  0  0  0  0  0  0
   26.0705   44.7702   87.4092 H   0  0  0  0  0  0  0  0  0  0  0  0
   25.5853   37.7986   86.7271 H   0  0  0  0  0  0  0  0  0  0  0  0
   27.5428   37.3322   85.1792 H   0  0  0  0  0  0  0  0  0  0  0  0
   28.1353   38.9960   83.3545 H   0  0  0  0  0  0  0  0  0  0  0  0
   26.7678   41.1203   83.0451 H   0  0  0  0  0  0  0  0  0  0  0  0
   24.8138   41.5861   84.6011 H   0  0  0  0  0  0  0  0  0  0  0  0
   20.3546   40.3551   84.9008 H   0  0  0  0  0  0  0  0  0  0  0  0
   19.2191   38.9171   83.1723 H   0  0  0  0  0  0  0  0  0  0  0  0
  1  2  2  0
  2  3  1  0
  3  4  2  0
  4  5  1  0
  5  6  1  0
  6  7  1  0
  7  8  2  0
  8  9  1  0
  9 10  2  0
 10 11  1  0
 11 12  1  0
 12 13  1  0
 13 14  1  0
 14 15  1  0
 15 16  1  0
 16 17  1  0
 17 18  1  0
 18 19  1  0
 19 20  1  0
 11 21  2  0
 21 22  1  0
 22 23  1  0
 23 24  2  0
 24 25  1  0
 25 26  2  0
 26 27  1  0
 27 28  2  0
  4 29  1  0
 29 30  2  0
 30  1  1  0
 22  5  2  0
 28 23  1  0
 21  7  1  0
 20 15  1  0
  1 31  1  0
  2 32  1  0
  3 33  1  0
  9 34  1  0
 10 35  1  0
 12 36  1  0
 13 37  1  0
 13 38  1  0
 14 39  1  0
 14 40  1  0
 15 41  1  0
 16 42  1  0
 16 43  1  0
 17 44  1  0
 17 45  1  0
 18 46  1  0
 18 47  1  0
 19 48  1  0
 19 49  1  0
 20 50  1  0
 20 51  1  0
 24 52  1  0
 25 53  1  0
 26 54  1  0
 27 55  1  0
 28 56  1  0
 29 57  1  0
 30 58  1  0
M  CHG  2  15   1  18   1
M  END
>  <meeko>  (47) 
{"free_energy": -9.789, "intermolecular_energy": -8.31, "internal_energy": -1.76}

$$$$

     RDKit          3D

 58 62  0  0  0  0  0  0  0  0999 V2000
   21.7540   42.9370   90.6150 C   0  0  0  0  0  0  0  0  0  0  0  0
   22.5160   44.0830   90.1680 C   0  0  0  0  0  0  0  0  0  0  0  0
   23.7140   43.8940   89.3980 C   0  0  0  0  0  0  0  0  0  0  0  0
   24.1540   42.5630   89.0830 C   0  0  0  0  0  0  0  0  0  0  0  0
   25.4010   42.4030   88.2670 C   0  0  0  0  0  0  0  0  0  0  0  0
   26.6500   42.6180   88.8140 O   0  0  0  0  0  0  0  0  0  0  0  0
   27.5380   42.3940   87.8110 C   0  0  0  0  0  0  0  0  0  0  0  0
   28.9210   42.4860   87.8830 N   0  0  0  0  0  0  0  0  0  0  0  0
   29.7230   42.2400   86.8160 C   0  0  0  0  0  0  0  0  0  0  0  0
   29.1630   41.8500   85.5720 C   0  0  0  0  0  0  0  0  0  0  0  0
   27.7310   41.7370   85.4420 C   0  0  0  0  0  0  0  0  0  0  0  0
   27.1460   41.3610   84.2510 N   0  0  0  0  0  0  0  0  0  0  0  0
   27.5570   40.1820   83.4990 C   0  0  0  0  0  0  0  0  0  0  0  0
   27.2450   38.8740   84.2300 C   0  0  0  0  0  0  0  0  0  0  0  0
   26.1690   38.0510   83.6210 N   0  0  0  0  0  4  0  0  0  0  0  0
   25.5720   37.2700   84.7380 C   0  0  0  0  0  0  0  0  0  0  0  0
   24.4400   36.3680   84.2100 C   0  0  0  0  0  0  0  0  0  0  0  0
   24.9830   35.4800   83.1400 N   0  0  0  0  0  4  0  0  0  0  0  0
   25.5870   36.2660   82.0180 C   0  0  0  0  0  0  0  0  0  0  0  0
   26.7290   37.1340   82.5890 C   0  0  0  0  0  0  0  0  0  0  0  0
   26.8920   42.0190   86.6100 C   0  0  0  0  0  0  0  0  0  0  0  0
   25.5140   42.0020   86.8090 C   0  0  0  0  0  0  0  0  0  0  0  0
   24.4800   41.6690   85.7980 C   0  0  0  0  0  0  0  0  0  0  0  0
   23.9280   42.6960   84.9580 C   0  0  0  0  0  0  0  0  0  0  0  0
   22.9190   42.3580   84.0000 C   0  0  0  0  0  0  0  0  0  0  0  0
   22.4660   40.9900   83.8890 C   0  0  0  0  0  0  0  0  0  0  0  0
   23.0210   39.9540   84.7300 C   0  0  0  0  0  0  0  0  0  0  0  0
   24.0290   40.2960   85.6890 C   0  0  0  0  0  0  0  0  0  0  0  0
   23.3740   41.4280   89.5490 C   0  0  0  0  0  0  0  0  0  0  0  0
   22.1860   41.6070   90.3080 C   0  0  0  0  0  0  0  0  0  0  0  0
   20.8330   43.0893   91.1969 H   0  0  0  0  0  0  0  0  0  0  0  0
   22.1778   45.0994   90.4179 H   0  0  0  0  0  0  0  0  0  0  0  0
   24.2914   44.7637   89.0514 H   0  0  0  0  0  0  0  0  0  0  0  0
   30.8135   42.3436   86.9163 H   0  0  0  0  0  0  0  0  0  0  0  0
   29.8160   41.6354   84.7132 H   0  0  0  0  0  0  0  0  0  0  0  0
   27.2950   42.1310   83.6310 H   0  0  0  0  0  0  0  0  0  0  0  0
   27.0298   40.1795   82.5336 H   0  0  0  0  0  0  0  0  0  0  0  0
   28.6478   40.2363   83.3680 H   0  0  0  0  0  0  0  0  0  0  0  0
   28.1638   38.2697   84.2535 H   0  0  0  0  0  0  0  0  0  0  0  0
   26.8824   39.1608   85.2281 H   0  0  0  0  0  0  0  0  0  0  0  0
   25.4880   38.6230   83.1650 H   0  0  0  0  0  0  0  0  0  0  0  0
   26.3496   36.6443   85.2004 H   0  0  0  0  0  0  0  0  0  0  0  0
   25.1588   37.9663   85.4826 H   0  0  0  0  0  0  0  0  0  0  0  0
   24.0439   35.7542   85.0324 H   0  0  0  0  0  0  0  0  0  0  0  0
   23.6305   36.9901   83.8004 H   0  0  0  0  0  0  0  0  0  0  0  0
   25.6880   34.8930   83.5370 H   0  0  0  0  0  0  0  0  0  0  0  0
   24.2360   34.9240   82.7760 H   0  0  0  0  0  0  0  0  0  0  0  0
   25.9871   35.5797   81.2572 H   0  0  0  0  0  0  0  0  0  0  0  0
   24.8235   36.9059   81.5516 H   0  0  0  0  0  0  0  0  0  0  0  0
   27.4920   36.4864   83.0455 H   0  0  0  0  0  0  0  0  0  0  0  0
   27.1910   37.7203   81.7810 H   0  0  0  0  0  0  0  0  0  0  0  0
   24.2782   43.7347   85.0504 H   0  0  0  0  0  0  0  0  0  0  0  0
   22.4904   43.1361   83.3513 H   0  0  0  0  0  0  0  0  0  0  0  0
   21.6883   40.7339   83.1545 H   0  0  0  0  0  0  0  0  0  0  0  0
   22.6735   38.9147   84.6349 H   0  0  0  0  0  0  0  0  0  0  0  0
   24.4586   39.5200   86.3396 H   0  0  0  0  0  0  0  0  0  0  0  0
   23.7107   40.4087   89.3089 H   0  0  0  0  0  0  0  0  0  0  0  0
   21.6076   40.7377   90.6541 H   0  0  0  0  0  0  0  0  0  0  0  0
  1  2  2  0
  2  3  1  0
  3  4  2  0
  4  5  1  0
  5  6  1  0
  6  7  1  0
  7  8  2  0
  8  9  1  0
  9 10  2  0
 10 11  1  0
 11 12  1  0
 12 13  1  0
 13 14  1  0
 14 15  1  0
 15 16  1  0
 16 17  1  0
 17 18  1  0
 18 19  1  0
 19 20  1  0
 11 21  2  0
 21 22  1  0
 22 23  1  0
 23 24  2  0
 24 25  1  0
 25 26  2  0
 26 27  1  0
 27 28  2  0
  4 29  1  0
 29 30  2  0
 30  1  1  0
 22  5  2  0
 28 23  1  0
 21  7  1  0
 20 15  1  0
  1 31  1  0
  2 32  1  0
  3 33  1  0
  9 34  1  0
 10 35  1  0
 12 36  1  0
 13 37  1  0
 13 38  1  0
 14 39  1  0
 14 40  1  0
 15 41  1  0
 16 42  1  0
 16 43  1  0
 17 44  1  0
 17 45  1  0
 18 46  1  0
 18 47  1  0
 19 48  1  0
 19 49  1  0
 20 50  1  0
 20 51  1  0
 24 52  1  0
 25 53  1  0
 26 54  1  0
 27 55  1  0
 28 56  1  0
 29 57  1  0
 30 58  1  0
M  CHG  2  15   1  18   1
M  END
>  <meeko>  (48) 
{"free_energy": -9.78, "intermolecular_energy": -8.29, "internal_energy": -1.769}

$$$$

     RDKit          3D

 58 62  0  0  0  0  0  0  0  0999 V2000
   31.8930   41.8800   85.6420 C   0  0  0  0  0  0  0  0  0  0  0  0
   30.5630   42.1420   86.1490 C   0  0  0  0  0  0  0  0  0  0  0  0
   29.4570   41.3310   85.7220 C   0  0  0  0  0  0  0  0  0  0  0  0
   29.6780   40.2660   84.7840 C   0  0  0  0  0  0  0  0  0  0  0  0
   28.5040   39.4310   84.3700 C   0  0  0  0  0  0  0  0  0  0  0  0
   28.6460   38.3800   83.4860 O   0  0  0  0  0  0  0  0  0  0  0  0
   27.4040   37.8550   83.3310 C   0  0  0  0  0  0  0  0  0  0  0  0
   27.0450   36.7750   82.5360 N   0  0  0  0  0  0  0  0  0  0  0  0
   25.7670   36.3260   82.4510 C   0  0  0  0  0  0  0  0  0  0  0  0
   24.7370   36.9450   83.2070 C   0  0  0  0  0  0  0  0  0  0  0  0
   25.0540   38.0700   84.0510 C   0  0  0  0  0  0  0  0  0  0  0  0
   24.0830   38.7000   84.8020 N   0  0  0  0  0  0  0  0  0  0  0  0
   23.1400   39.6580   84.2410 C   0  0  0  0  0  0  0  0  0  0  0  0
   22.0660   40.0880   85.2440 C   0  0  0  0  0  0  0  0  0  0  0  0
   20.9040   39.1710   85.3570 N   0  0  0  0  0  4  0  0  0  0  0  0
   21.1910   38.2920   86.5230 C   0  0  0  0  0  0  0  0  0  0  0  0
   20.0420   37.2870   86.7270 C   0  0  0  0  0  0  0  0  0  0  0  0
   19.8530   36.5000   85.4730 N   0  0  0  0  0  4  0  0  0  0  0  0
   19.5680   37.3850   84.2990 C   0  0  0  0  0  0  0  0  0  0  0  0
   20.7540   38.3560   84.1190 C   0  0  0  0  0  0  0  0  0  0  0  0
   26.4420   38.5370   84.1140 C   0  0  0  0  0  0  0  0  0  0  0  0
   27.0610   39.5690   84.8130 C   0  0  0  0  0  0  0  0  0  0  0  0
   26.4040   40.5270   85.7380 C   0  0  0  0  0  0  0  0  0  0  0  0
   26.2740   40.2130   87.1340 C   0  0  0  0  0  0  0  0  0  0  0  0
   25.6220   41.1430   88.0080 C   0  0  0  0  0  0  0  0  0  0  0  0
   25.1010   42.3810   87.4770 C   0  0  0  0  0  0  0  0  0  0  0  0
   25.2330   42.7010   86.0740 C   0  0  0  0  0  0  0  0  0  0  0  0
   25.8840   41.7690   85.2030 C   0  0  0  0  0  0  0  0  0  0  0  0
   31.0220   40.0250   84.2850 C   0  0  0  0  0  0  0  0  0  0  0  0
   32.1220   40.8220   84.7050 C   0  0  0  0  0  0  0  0  0  0  0  0
   32.7364   42.5000   85.9800 H   0  0  0  0  0  0  0  0  0  0  0  0
   30.3989   42.9632   86.8622 H   0  0  0  0  0  0  0  0  0  0  0  0
   28.4465   41.5245   86.1112 H   0  0  0  0  0  0  0  0  0  0  0  0
   25.5279   35.4778   81.7927 H   0  0  0  0  0  0  0  0  0  0  0  0
   23.7049   36.5691   83.1492 H   0  0  0  0  0  0  0  0  0  0  0  0
   24.5840   39.2060   85.5040 H   0  0  0  0  0  0  0  0  0  0  0  0
   23.6959   40.5501   83.9168 H   0  0  0  0  0  0  0  0  0  0  0  0
   22.6301   39.1675   83.3987 H   0  0  0  0  0  0  0  0  0  0  0  0
   22.5369   40.1645   86.2351 H   0  0  0  0  0  0  0  0  0  0  0  0
   21.6663   41.0433   84.8729 H   0  0  0  0  0  0  0  0  0  0  0  0
   20.0510   39.6780   85.4780 H   0  0  0  0  0  0  0  0  0  0  0  0
   22.1266   37.7425   86.3422 H   0  0  0  0  0  0  0  0  0  0  0  0
   21.2888   38.9133   87.4254 H   0  0  0  0  0  0  0  0  0  0  0  0
   20.2904   36.6067   87.5549 H   0  0  0  0  0  0  0  0  0  0  0  0
   19.1151   37.8279   86.9683 H   0  0  0  0  0  0  0  0  0  0  0  0
   20.6890   35.9840   85.2890 H   0  0  0  0  0  0  0  0  0  0  0  0
   19.0820   35.8760   85.5980 H   0  0  0  0  0  0  0  0  0  0  0  0
   19.4488   36.7727   83.3930 H   0  0  0  0  0  0  0  0  0  0  0  0
   18.6401   37.9506   84.4696 H   0  0  0  0  0  0  0  0  0  0  0  0
   21.6760   37.7833   83.9402 H   0  0  0  0  0  0  0  0  0  0  0  0
   20.5674   39.0161   83.2591 H   0  0  0  0  0  0  0  0  0  0  0  0
   26.6717   39.2664   87.5288 H   0  0  0  0  0  0  0  0  0  0  0  0
   25.5188   40.9148   89.0791 H   0  0  0  0  0  0  0  0  0  0  0  0
   24.5967   43.0901   88.1499 H   0  0  0  0  0  0  0  0  0  0  0  0
   24.8382   43.6490   85.6798 H   0  0  0  0  0  0  0  0  0  0  0  0
   25.9889   41.9953   84.1317 H   0  0  0  0  0  0  0  0  0  0  0  0
   31.1915   39.2088   83.5673 H   0  0  0  0  0  0  0  0  0  0  0  0
   33.1327   40.6288   84.3163 H   0  0  0  0  0  0  0  0  0  0  0  0
  1  2  2  0
  2  3  1  0
  3  4  2  0
  4  5  1  0
  5  6  1  0
  6  7  1  0
  7  8  2  0
  8  9  1  0
  9 10  2  0
 10 11  1  0
 11 12  1  0
 12 13  1  0
 13 14  1  0
 14 15  1  0
 15 16  1  0
 16 17  1  0
 17 18  1  0
 18 19  1  0
 19 20  1  0
 11 21  2  0
 21 22  1  0
 22 23  1  0
 23 24  2  0
 24 25  1  0
 25 26  2  0
 26 27  1  0
 27 28  2  0
  4 29  1  0
 29 30  2  0
 30  1  1  0
 22  5  2  0
 28 23  1  0
 21  7  1  0
 20 15  1  0
  1 31  1  0
  2 32  1  0
  3 33  1  0
  9 34  1  0
 10 35  1  0
 12 36  1  0
 13 37  1  0
 13 38  1  0
 14 39  1  0
 14 40  1  0
 15 41  1  0
 16 42  1  0
 16 43  1  0
 17 44  1  0
 17 45  1  0
 18 46  1  0
 18 47  1  0
 19 48  1  0
 19 49  1  0
 20 50  1  0
 20 51  1  0
 24 52  1  0
 25 53  1  0
 26 54  1  0
 27 55  1  0
 28 56  1  0
 29 57  1  0
 30 58  1  0
M  CHG  2  15   1  18   1
M  END
>  <meeko>  (49) 
{"free_energy": -9.765, "intermolecular_energy": -8.802, "internal_energy": -1.236}

$$$$

     RDKit          3D

 58 62  0  0  0  0  0  0  0  0999 V2000
   24.9750   35.3510   82.8700 C   0  0  0  0  0  0  0  0  0  0  0  0
   25.8250   36.1250   81.9910 C   0  0  0  0  0  0  0  0  0  0  0  0
   26.3330   37.3980   82.4190 C   0  0  0  0  0  0  0  0  0  0  0  0
   25.9870   37.9010   83.7200 C   0  0  0  0  0  0  0  0  0  0  0  0
   26.5460   39.2270   84.1390 C   0  0  0  0  0  0  0  0  0  0  0  0
   27.9010   39.4050   84.3360 O   0  0  0  0  0  0  0  0  0  0  0  0
   28.0540   40.7010   84.7100 C   0  0  0  0  0  0  0  0  0  0  0  0
   29.2430   41.3490   85.0160 N   0  0  0  0  0  0  0  0  0  0  0  0
   29.2880   42.6560   85.3800 C   0  0  0  0  0  0  0  0  0  0  0  0
   28.0980   43.4260   85.4380 C   0  0  0  0  0  0  0  0  0  0  0  0
   26.8340   42.8040   85.1280 C   0  0  0  0  0  0  0  0  0  0  0  0
   25.6530   43.5160   85.1710 N   0  0  0  0  0  0  0  0  0  0  0  0
   24.7040   43.4180   86.2730 C   0  0  0  0  0  0  0  0  0  0  0  0
   24.9850   44.4290   87.3890 C   0  0  0  0  0  0  0  0  0  0  0  0
   25.1140   43.8480   88.7490 N   0  0  0  0  0  4  0  0  0  0  0  0
   26.4770   44.2120   89.2200 C   0  0  0  0  0  0  0  0  0  0  0  0
   26.7200   43.6470   90.6320 C   0  0  0  0  0  0  0  0  0  0  0  0
   26.5200   42.1680   90.6070 N   0  0  0  0  0  4  0  0  0  0  0  0
   25.1490   41.8000   90.1300 C   0  0  0  0  0  0  0  0  0  0  0  0
   24.9600   42.3660   88.7050 C   0  0  0  0  0  0  0  0  0  0  0  0
   26.8170   41.3890   84.7470 C   0  0  0  0  0  0  0  0  0  0  0  0
   25.7910   40.5160   84.3980 C   0  0  0  0  0  0  0  0  0  0  0  0
   24.3440   40.8390   84.3250 C   0  0  0  0  0  0  0  0  0  0  0  0
   23.8660   41.8190   83.3880 C   0  0  0  0  0  0  0  0  0  0  0  0
   22.4690   42.1300   83.3430 C   0  0  0  0  0  0  0  0  0  0  0  0
   21.5560   41.4580   84.2400 C   0  0  0  0  0  0  0  0  0  0  0  0
   22.0330   40.4700   85.1810 C   0  0  0  0  0  0  0  0  0  0  0  0
   23.4320   40.1630   85.2240 C   0  0  0  0  0  0  0  0  0  0  0  0
   25.1270   37.1080   84.5820 C   0  0  0  0  0  0  0  0  0  0  0  0
   24.6220   35.8450   84.1670 C   0  0  0  0  0  0  0  0  0  0  0  0
   24.5961   34.3730   82.5384 H   0  0  0  0  0  0  0  0  0  0  0  0
   26.0822   35.7378   80.9940 H   0  0  0  0  0  0  0  0  0  0  0  0
   26.9837   37.9853   81.7544 H   0  0  0  0  0  0  0  0  0  0  0  0
   30.2528   43.1207   85.6314 H   0  0  0  0  0  0  0  0  0  0  0  0
   28.1388   44.4892   85.7172 H   0  0  0  0  0  0  0  0  0  0  0  0
   25.1440   43.2280   84.3610 H   0  0  0  0  0  0  0  0  0  0  0  0
   23.6916   43.5980   85.8822 H   0  0  0  0  0  0  0  0  0  0  0  0
   24.8010   42.4113   86.7055 H   0  0  0  0  0  0  0  0  0  0  0  0
   25.9250   44.9477   87.1498 H   0  0  0  0  0  0  0  0  0  0  0  0
   24.1117   45.0969   87.4235 H   0  0  0  0  0  0  0  0  0  0  0  0
   24.4050   44.1970   89.3620 H   0  0  0  0  0  0  0  0  0  0  0  0
   27.2239   43.7952   88.5283 H   0  0  0  0  0  0  0  0  0  0  0  0
   26.5651   45.3080   89.2518 H   0  0  0  0  0  0  0  0  0  0  0  0
   27.7489   43.8743   90.9477 H   0  0  0  0  0  0  0  0  0  0  0  0
   26.0143   44.1046   91.3409 H   0  0  0  0  0  0  0  0  0  0  0  0
   27.1940   41.7630   89.9900 H   0  0  0  0  0  0  0  0  0  0  0  0
   26.6430   41.8120   91.5340 H   0  0  0  0  0  0  0  0  0  0  0  0
   25.0434   40.7052   90.1119 H   0  0  0  0  0  0  0  0  0  0  0  0
   24.3888   42.2178   90.8064 H   0  0  0  0  0  0  0  0  0  0  0  0
   25.7177   41.9359   88.0335 H   0  0  0  0  0  0  0  0  0  0  0  0
   23.9586   42.1066   88.3311 H   0  0  0  0  0  0  0  0  0  0  0  0
   24.5685   42.3263   82.7104 H   0  0  0  0  0  0  0  0  0  0  0  0
   22.0922   42.8771   82.6289 H   0  0  0  0  0  0  0  0  0  0  0  0
   20.4839   41.7018   84.2060 H   0  0  0  0  0  0  0  0  0  0  0  0
   21.3303   39.9598   85.8562 H   0  0  0  0  0  0  0  0  0  0  0  0
   23.8117   39.4166   85.9372 H   0  0  0  0  0  0  0  0  0  0  0  0
   24.8607   37.4931   85.5774 H   0  0  0  0  0  0  0  0  0  0  0  0
   23.9711   35.2574   84.8311 H   0  0  0  0  0  0  0  0  0  0  0  0
  1  2  2  0
  2  3  1  0
  3  4  2  0
  4  5  1  0
  5  6  1  0
  6  7  1  0
  7  8  2  0
  8  9  1  0
  9 10  2  0
 10 11  1  0
 11 12  1  0
 12 13  1  0
 13 14  1  0
 14 15  1  0
 15 16  1  0
 16 17  1  0
 17 18  1  0
 18 19  1  0
 19 20  1  0
 11 21  2  0
 21 22  1  0
 22 23  1  0
 23 24  2  0
 24 25  1  0
 25 26  2  0
 26 27  1  0
 27 28  2  0
  4 29  1  0
 29 30  2  0
 30  1  1  0
 22  5  2  0
 28 23  1  0
 21  7  1  0
 20 15  1  0
  1 31  1  0
  2 32  1  0
  3 33  1  0
  9 34  1  0
 10 35  1  0
 12 36  1  0
 13 37  1  0
 13 38  1  0
 14 39  1  0
 14 40  1  0
 15 41  1  0
 16 42  1  0
 16 43  1  0
 17 44  1  0
 17 45  1  0
 18 46  1  0
 18 47  1  0
 19 48  1  0
 19 49  1  0
 20 50  1  0
 20 51  1  0
 24 52  1  0
 25 53  1  0
 26 54  1  0
 27 55  1  0
 28 56  1  0
 29 57  1  0
 30 58  1  0
M  CHG  2  15   1  18   1
M  END
>  <meeko>  (50) 
{"free_energy": -9.756, "intermolecular_energy": -9.047, "internal_energy": -0.979}

$$$$

     RDKit          3D

 58 62  0  0  0  0  0  0  0  0999 V2000
   28.3330   35.9910   82.5040 C   0  0  0  0  0  0  0  0  0  0  0  0
   27.1110   36.7000   82.8170 C   0  0  0  0  0  0  0  0  0  0  0  0
   27.1610   37.9190   83.5760 C   0  0  0  0  0  0  0  0  0  0  0  0
   28.4280   38.4240   84.0280 C   0  0  0  0  0  0  0  0  0  0  0  0
   28.4440   39.7050   84.8050 C   0  0  0  0  0  0  0  0  0  0  0  0
   29.6280   40.3590   85.0850 O   0  0  0  0  0  0  0  0  0  0  0  0
   29.2810   41.4620   85.7970 C   0  0  0  0  0  0  0  0  0  0  0  0
   30.1340   42.4330   86.3040 N   0  0  0  0  0  0  0  0  0  0  0  0
   29.6850   43.5040   87.0060 C   0  0  0  0  0  0  0  0  0  0  0  0
   28.2950   43.6820   87.2300 C   0  0  0  0  0  0  0  0  0  0  0  0
   27.3630   42.7050   86.7250 C   0  0  0  0  0  0  0  0  0  0  0  0
   26.0040   42.8400   86.9200 N   0  0  0  0  0  0  0  0  0  0  0  0
   25.3420   42.4960   88.1720 C   0  0  0  0  0  0  0  0  0  0  0  0
   24.1930   43.4490   88.5160 C   0  0  0  0  0  0  0  0  0  0  0  0
   22.9380   42.7910   88.9580 N   0  0  0  0  0  4  0  0  0  0  0  0
   22.3410   42.1890   87.7350 C   0  0  0  0  0  0  0  0  0  0  0  0
   21.0180   41.4810   88.0830 C   0  0  0  0  0  0  0  0  0  0  0  0
   20.0940   42.4610   88.7260 N   0  0  0  0  0  4  0  0  0  0  0  0
   20.6960   43.0700   89.9550 C   0  0  0  0  0  0  0  0  0  0  0  0
   22.0040   43.7870   89.5540 C   0  0  0  0  0  0  0  0  0  0  0  0
   27.8810   41.5550   85.9790 C   0  0  0  0  0  0  0  0  0  0  0  0
   27.2630   40.4630   85.3760 C   0  0  0  0  0  0  0  0  0  0  0  0
   25.8060   40.1800   85.3460 C   0  0  0  0  0  0  0  0  0  0  0  0
   25.2180   39.2980   86.3150 C   0  0  0  0  0  0  0  0  0  0  0  0
   23.8130   39.0240   86.2600 C   0  0  0  0  0  0  0  0  0  0  0  0
   23.0040   39.6330   85.2300 C   0  0  0  0  0  0  0  0  0  0  0  0
   23.5920   40.5240   84.2540 C   0  0  0  0  0  0  0  0  0  0  0  0
   24.9970   40.7950   84.3120 C   0  0  0  0  0  0  0  0  0  0  0  0
   29.6410   37.6900   83.7050 C   0  0  0  0  0  0  0  0  0  0  0  0
   29.6000   36.4850   82.9520 C   0  0  0  0  0  0  0  0  0  0  0  0
   28.2881   35.0627   81.9156 H   0  0  0  0  0  0  0  0  0  0  0  0
   26.1433   36.3055   82.4737 H   0  0  0  0  0  0  0  0  0  0  0  0
   26.2339   38.4629   83.8099 H   0  0  0  0  0  0  0  0  0  0  0  0
   30.4018   44.2377   87.4033 H   0  0  0  0  0  0  0  0  0  0  0  0
   27.9313   44.5593   87.7851 H   0  0  0  0  0  0  0  0  0  0  0  0
   25.5810   42.2530   86.2300 H   0  0  0  0  0  0  0  0  0  0  0  0
   24.9395   41.4757   88.0882 H   0  0  0  0  0  0  0  0  0  0  0  0
   26.0897   42.5744   88.9750 H   0  0  0  0  0  0  0  0  0  0  0  0
   24.5321   44.1133   89.3245 H   0  0  0  0  0  0  0  0  0  0  0  0
   23.9477   43.9807   87.5848 H   0  0  0  0  0  0  0  0  0  0  0  0
   23.1170   42.1020   89.6600 H   0  0  0  0  0  0  0  0  0  0  0  0
   22.1461   42.9817   86.9977 H   0  0  0  0  0  0  0  0  0  0  0  0
   23.0435   41.4527   87.3174 H   0  0  0  0  0  0  0  0  0  0  0  0
   20.5575   41.0886   87.1643 H   0  0  0  0  0  0  0  0  0  0  0  0
   21.2141   40.6481   88.7742 H   0  0  0  0  0  0  0  0  0  0  0  0
   19.8940   43.1910   88.0720 H   0  0  0  0  0  0  0  0  0  0  0  0
   19.2510   41.9880   88.9830 H   0  0  0  0  0  0  0  0  0  0  0  0
   19.9939   43.7952   90.3922 H   0  0  0  0  0  0  0  0  0  0  0  0
   20.9068   42.2881   90.6995 H   0  0  0  0  0  0  0  0  0  0  0  0
   21.7830   44.5730   88.8169 H   0  0  0  0  0  0  0  0  0  0  0  0
   22.4648   44.2450   90.4417 H   0  0  0  0  0  0  0  0  0  0  0  0
   25.8422   38.8360   87.0941 H   0  0  0  0  0  0  0  0  0  0  0  0
   23.3521   38.3524   86.9993 H   0  0  0  0  0  0  0  0  0  0  0  0
   21.9264   39.4163   85.1873 H   0  0  0  0  0  0  0  0  0  0  0  0
   22.9674   40.9879   83.4764 H   0  0  0  0  0  0  0  0  0  0  0  0
   25.4606   41.4671   83.5749 H   0  0  0  0  0  0  0  0  0  0  0  0
   30.6114   38.0756   84.0509 H   0  0  0  0  0  0  0  0  0  0  0  0
   30.5267   35.9408   82.7173 H   0  0  0  0  0  0  0  0  0  0  0  0
  1  2  2  0
  2  3  1  0
  3  4  2  0
  4  5  1  0
  5  6  1  0
  6  7  1  0
  7  8  2  0
  8  9  1  0
  9 10  2  0
 10 11  1  0
 11 12  1  0
 12 13  1  0
 13 14  1  0
 14 15  1  0
 15 16  1  0
 16 17  1  0
 17 18  1  0
 18 19  1  0
 19 20  1  0
 11 21  2  0
 21 22  1  0
 22 23  1  0
 23 24  2  0
 24 25  1  0
 25 26  2  0
 26 27  1  0
 27 28  2  0
  4 29  1  0
 29 30  2  0
 30  1  1  0
 22  5  2  0
 28 23  1  0
 21  7  1  0
 20 15  1  0
  1 31  1  0
  2 32  1  0
  3 33  1  0
  9 34  1  0
 10 35  1  0
 12 36  1  0
 13 37  1  0
 13 38  1  0
 14 39  1  0
 14 40  1  0
 15 41  1  0
 16 42  1  0
 16 43  1  0
 17 44  1  0
 17 45  1  0
 18 46  1  0
 18 47  1  0
 19 48  1  0
 19 49  1  0
 20 50  1  0
 20 51  1  0
 24 52  1  0
 25 53  1  0
 26 54  1  0
 27 55  1  0
 28 56  1  0
 29 57  1  0
 30 58  1  0
M  CHG  2  15   1  18   1
M  END
>  <meeko>  (51) 
{"free_energy": -9.75, "intermolecular_energy": -8.62, "internal_energy": -1.398}

$$$$

     RDKit          3D

 58 62  0  0  0  0  0  0  0  0999 V2000
   26.9040   36.1420   81.9370 C   0  0  0  0  0  0  0  0  0  0  0  0
   27.9290   36.8700   82.6520 C   0  0  0  0  0  0  0  0  0  0  0  0
   27.5730   37.7070   83.7640 C   0  0  0  0  0  0  0  0  0  0  0  0
   26.1960   37.8230   84.1540 C   0  0  0  0  0  0  0  0  0  0  0  0
   25.8620   38.6940   85.3270 C   0  0  0  0  0  0  0  0  0  0  0  0
   26.8490   39.3380   86.0470 O   0  0  0  0  0  0  0  0  0  0  0  0
   26.2050   40.0250   87.0260 C   0  0  0  0  0  0  0  0  0  0  0  0
   26.7800   40.8270   88.0020 N   0  0  0  0  0  0  0  0  0  0  0  0
   26.0430   41.4740   88.9400 C   0  0  0  0  0  0  0  0  0  0  0  0
   24.6280   41.3690   88.9390 C   0  0  0  0  0  0  0  0  0  0  0  0
   23.9770   40.5500   87.9470 C   0  0  0  0  0  0  0  0  0  0  0  0
   22.6050   40.4190   87.9110 N   0  0  0  0  0  0  0  0  0  0  0  0
   21.7160   41.4780   87.4480 C   0  0  0  0  0  0  0  0  0  0  0  0
   21.1590   42.3270   88.5930 C   0  0  0  0  0  0  0  0  0  0  0  0
   21.8630   43.6140   88.8250 N   0  0  0  0  0  4  0  0  0  0  0  0
   22.8150   43.7670   87.6920 C   0  0  0  0  0  0  0  0  0  0  0  0
   23.6100   45.0780   87.8390 C   0  0  0  0  0  0  0  0  0  0  0  0
   24.3120   45.0780   89.1570 N   0  0  0  0  0  4  0  0  0  0  0  0
   23.3560   44.9190   90.2970 C   0  0  0  0  0  0  0  0  0  0  0  0
   22.6010   43.5840   90.1200 C   0  0  0  0  0  0  0  0  0  0  0  0
   24.8020   39.8560   86.9530 C   0  0  0  0  0  0  0  0  0  0  0  0
   24.4910   39.0110   85.8910 C   0  0  0  0  0  0  0  0  0  0  0  0
   23.1340   38.5730   85.4800 C   0  0  0  0  0  0  0  0  0  0  0  0
   22.3580   39.3710   84.5710 C   0  0  0  0  0  0  0  0  0  0  0  0
   21.0440   38.9410   84.1980 C   0  0  0  0  0  0  0  0  0  0  0  0
   20.5120   37.7120   84.7410 C   0  0  0  0  0  0  0  0  0  0  0  0
   21.2900   36.9050   85.6540 C   0  0  0  0  0  0  0  0  0  0  0  0
   22.6040   37.3400   86.0250 C   0  0  0  0  0  0  0  0  0  0  0  0
   25.1840   37.0860   83.4160 C   0  0  0  0  0  0  0  0  0  0  0  0
   25.5290   36.2530   82.3160 C   0  0  0  0  0  0  0  0  0  0  0  0
   27.1848   35.4957   81.0923 H   0  0  0  0  0  0  0  0  0  0  0  0
   28.9815   36.7828   82.3443 H   0  0  0  0  0  0  0  0  0  0  0  0
   28.3514   38.2563   84.3139 H   0  0  0  0  0  0  0  0  0  0  0  0
   26.5455   42.0834   89.7056 H   0  0  0  0  0  0  0  0  0  0  0  0
   24.0320   41.9086   89.6897 H   0  0  0  0  0  0  0  0  0  0  0  0
   22.3340   40.2460   88.8580 H   0  0  0  0  0  0  0  0  0  0  0  0
   22.2760   42.1333   86.7646 H   0  0  0  0  0  0  0  0  0  0  0  0
   20.8629   40.9985   86.9456 H   0  0  0  0  0  0  0  0  0  0  0  0
   20.1054   42.5506   88.3697 H   0  0  0  0  0  0  0  0  0  0  0  0
   21.2971   41.7336   89.5088 H   0  0  0  0  0  0  0  0  0  0  0  0
   21.2190   44.3770   88.8740 H   0  0  0  0  0  0  0  0  0  0  0  0
   23.5134   42.9171   87.6868 H   0  0  0  0  0  0  0  0  0  0  0  0
   22.2494   43.7939   86.7489 H   0  0  0  0  0  0  0  0  0  0  0  0
   24.3492   45.1536   87.0279 H   0  0  0  0  0  0  0  0  0  0  0  0
   22.9237   45.9359   87.7844 H   0  0  0  0  0  0  0  0  0  0  0  0
   24.9610   44.3170   89.1740 H   0  0  0  0  0  0  0  0  0  0  0  0
   24.7960   45.9470   89.2630 H   0  0  0  0  0  0  0  0  0  0  0  0
   23.9100   44.9089   91.2473 H   0  0  0  0  0  0  0  0  0  0  0  0
   22.6430   45.7565   90.3108 H   0  0  0  0  0  0  0  0  0  0  0  0
   23.3196   42.7512   90.1162 H   0  0  0  0  0  0  0  0  0  0  0  0
   21.8922   43.4441   90.9495 H   0  0  0  0  0  0  0  0  0  0  0  0
   22.7707   40.3061   84.1644 H   0  0  0  0  0  0  0  0  0  0  0  0
   20.4424   39.5434   83.5014 H   0  0  0  0  0  0  0  0  0  0  0  0
   19.5009   37.3859   84.4557 H   0  0  0  0  0  0  0  0  0  0  0  0
   20.8784   35.9687   86.0589 H   0  0  0  0  0  0  0  0  0  0  0  0
   23.2081   36.7397   86.7212 H   0  0  0  0  0  0  0  0  0  0  0  0
   24.1289   37.1742   83.7144 H   0  0  0  0  0  0  0  0  0  0  0  0
   24.7513   35.7031   81.7657 H   0  0  0  0  0  0  0  0  0  0  0  0
  1  2  2  0
  2  3  1  0
  3  4  2  0
  4  5  1  0
  5  6  1  0
  6  7  1  0
  7  8  2  0
  8  9  1  0
  9 10  2  0
 10 11  1  0
 11 12  1  0
 12 13  1  0
 13 14  1  0
 14 15  1  0
 15 16  1  0
 16 17  1  0
 17 18  1  0
 18 19  1  0
 19 20  1  0
 11 21  2  0
 21 22  1  0
 22 23  1  0
 23 24  2  0
 24 25  1  0
 25 26  2  0
 26 27  1  0
 27 28  2  0
  4 29  1  0
 29 30  2  0
 30  1  1  0
 22  5  2  0
 28 23  1  0
 21  7  1  0
 20 15  1  0
  1 31  1  0
  2 32  1  0
  3 33  1  0
  9 34  1  0
 10 35  1  0
 12 36  1  0
 13 37  1  0
 13 38  1  0
 14 39  1  0
 14 40  1  0
 15 41  1  0
 16 42  1  0
 16 43  1  0
 17 44  1  0
 17 45  1  0
 18 46  1  0
 18 47  1  0
 19 48  1  0
 19 49  1  0
 20 50  1  0
 20 51  1  0
 24 52  1  0
 25 53  1  0
 26 54  1  0
 27 55  1  0
 28 56  1  0
 29 57  1  0
 30 58  1  0
M  CHG  2  15   1  18   1
M  END
>  <meeko>  (52) 
{"free_energy": -9.718, "intermolecular_energy": -9.026, "internal_energy": -0.949}

$$$$

     RDKit          3D

 58 62  0  0  0  0  0  0  0  0999 V2000
   31.7870   37.6030   82.1510 C   0  0  0  0  0  0  0  0  0  0  0  0
   31.5920   38.9920   82.5080 C   0  0  0  0  0  0  0  0  0  0  0  0
   30.4740   39.3750   83.3240 C   0  0  0  0  0  0  0  0  0  0  0  0
   29.5470   38.3740   83.7750 C   0  0  0  0  0  0  0  0  0  0  0  0
   28.4000   38.8060   84.6360 C   0  0  0  0  0  0  0  0  0  0  0  0
   28.5710   39.7270   85.6510 O   0  0  0  0  0  0  0  0  0  0  0  0
   27.3480   39.8810   86.2220 C   0  0  0  0  0  0  0  0  0  0  0  0
   27.0200   40.7100   87.2860 N   0  0  0  0  0  0  0  0  0  0  0  0
   25.7600   40.7910   87.7840 C   0  0  0  0  0  0  0  0  0  0  0  0
   24.7090   40.0340   87.2050 C   0  0  0  0  0  0  0  0  0  0  0  0
   24.9930   39.1580   86.0950 C   0  0  0  0  0  0  0  0  0  0  0  0
   24.0010   38.4040   85.5030 N   0  0  0  0  0  0  0  0  0  0  0  0
   22.6420   38.3280   86.0230 C   0  0  0  0  0  0  0  0  0  0  0  0
   21.5990   38.8600   85.0350 C   0  0  0  0  0  0  0  0  0  0  0  0
   21.3340   40.3180   85.1200 N   0  0  0  0  0  4  0  0  0  0  0  0
   22.1730   40.9470   84.0640 C   0  0  0  0  0  0  0  0  0  0  0  0
   21.9770   42.4750   84.0700 C   0  0  0  0  0  0  0  0  0  0  0  0
   22.3070   43.0030   85.4270 N   0  0  0  0  0  4  0  0  0  0  0  0
   21.4660   42.3680   86.4910 C   0  0  0  0  0  0  0  0  0  0  0  0
   21.7120   40.8440   86.4620 C   0  0  0  0  0  0  0  0  0  0  0  0
   26.3660   39.0840   85.5870 C   0  0  0  0  0  0  0  0  0  0  0  0
   26.9550   38.3560   84.5570 C   0  0  0  0  0  0  0  0  0  0  0  0
   26.2730   37.3960   83.6540 C   0  0  0  0  0  0  0  0  0  0  0  0
   25.6160   36.2350   84.1900 C   0  0  0  0  0  0  0  0  0  0  0  0
   24.9780   35.3120   83.3000 C   0  0  0  0  0  0  0  0  0  0  0  0
   25.0020   35.5540   81.8770 C   0  0  0  0  0  0  0  0  0  0  0  0
   25.6590   36.7230   81.3340 C   0  0  0  0  0  0  0  0  0  0  0  0
   26.2970   37.6430   82.2260 C   0  0  0  0  0  0  0  0  0  0  0  0
   29.7610   36.9870   83.3980 C   0  0  0  0  0  0  0  0  0  0  0  0
   30.8670   36.5990   82.5930 C   0  0  0  0  0  0  0  0  0  0  0  0
   32.6510   37.3158   81.5337 H   0  0  0  0  0  0  0  0  0  0  0  0
   32.3008   39.7550   82.1540 H   0  0  0  0  0  0  0  0  0  0  0  0
   30.3281   40.4292   83.6023 H   0  0  0  0  0  0  0  0  0  0  0  0
   25.5524   41.4476   88.6418 H   0  0  0  0  0  0  0  0  0  0  0  0
   23.6854   40.1146   87.5996 H   0  0  0  0  0  0  0  0  0  0  0  0
   24.3410   37.4640   85.5220 H   0  0  0  0  0  0  0  0  0  0  0  0
   22.4096   37.2765   86.2474 H   0  0  0  0  0  0  0  0  0  0  0  0
   22.5961   38.9568   86.9244 H   0  0  0  0  0  0  0  0  0  0  0  0
   21.9499   38.6367   84.0167 H   0  0  0  0  0  0  0  0  0  0  0  0
   20.6526   38.3622   85.2927 H   0  0  0  0  0  0  0  0  0  0  0  0
   20.3640   40.5190   84.9900 H   0  0  0  0  0  0  0  0  0  0  0  0
   23.2313   40.7155   84.2547 H   0  0  0  0  0  0  0  0  0  0  0  0
   21.8731   40.5501   83.0829 H   0  0  0  0  0  0  0  0  0  0  0  0
   22.6417   42.9348   83.3239 H   0  0  0  0  0  0  0  0  0  0  0  0
   20.9330   42.7163   83.8215 H   0  0  0  0  0  0  0  0  0  0  0  0
   23.2680   42.8120   85.6210 H   0  0  0  0  0  0  0  0  0  0  0  0
   22.1430   43.9900   85.4360 H   0  0  0  0  0  0  0  0  0  0  0  0
   21.7460   42.7708   87.4756 H   0  0  0  0  0  0  0  0  0  0  0  0
   20.4024   42.5826   86.3103 H   0  0  0  0  0  0  0  0  0  0  0  0
   22.7756   40.6382   86.6528 H   0  0  0  0  0  0  0  0  0  0  0  0
   21.1052   40.3544   87.2379 H   0  0  0  0  0  0  0  0  0  0  0  0
   25.6034   36.0570   85.2754 H   0  0  0  0  0  0  0  0  0  0  0  0
   24.4711   34.4212   83.6995 H   0  0  0  0  0  0  0  0  0  0  0  0
   24.5144   34.8403   81.1967 H   0  0  0  0  0  0  0  0  0  0  0  0
   25.6682   36.9027   80.2488 H   0  0  0  0  0  0  0  0  0  0  0  0
   26.8040   38.5348   81.8289 H   0  0  0  0  0  0  0  0  0  0  0  0
   29.0517   36.2203   83.7430 H   0  0  0  0  0  0  0  0  0  0  0  0
   31.0133   35.5450   82.3145 H   0  0  0  0  0  0  0  0  0  0  0  0
  1  2  2  0
  2  3  1  0
  3  4  2  0
  4  5  1  0
  5  6  1  0
  6  7  1  0
  7  8  2  0
  8  9  1  0
  9 10  2  0
 10 11  1  0
 11 12  1  0
 12 13  1  0
 13 14  1  0
 14 15  1  0
 15 16  1  0
 16 17  1  0
 17 18  1  0
 18 19  1  0
 19 20  1  0
 11 21  2  0
 21 22  1  0
 22 23  1  0
 23 24  2  0
 24 25  1  0
 25 26  2  0
 26 27  1  0
 27 28  2  0
  4 29  1  0
 29 30  2  0
 30  1  1  0
 22  5  2  0
 28 23  1  0
 21  7  1  0
 20 15  1  0
  1 31  1  0
  2 32  1  0
  3 33  1  0
  9 34  1  0
 10 35  1  0
 12 36  1  0
 13 37  1  0
 13 38  1  0
 14 39  1  0
 14 40  1  0
 15 41  1  0
 16 42  1  0
 16 43  1  0
 17 44  1  0
 17 45  1  0
 18 46  1  0
 18 47  1  0
 19 48  1  0
 19 49  1  0
 20 50  1  0
 20 51  1  0
 24 52  1  0
 25 53  1  0
 26 54  1  0
 27 55  1  0
 28 56  1  0
 29 57  1  0
 30 58  1  0
M  CHG  2  15   1  18   1
M  END
>  <meeko>  (53) 
{"free_energy": -9.698, "intermolecular_energy": -9.067, "internal_energy": -0.881}

$$$$

     RDKit          3D

 58 62  0  0  0  0  0  0  0  0999 V2000
   31.6590   35.7400   82.4770 C   0  0  0  0  0  0  0  0  0  0  0  0
   30.2540   35.7280   82.1320 C   0  0  0  0  0  0  0  0  0  0  0  0
   29.3510   36.6500   82.7620 C   0  0  0  0  0  0  0  0  0  0  0  0
   29.8490   37.5770   83.7400 C   0  0  0  0  0  0  0  0  0  0  0  0
   28.8820   38.5340   84.3670 C   0  0  0  0  0  0  0  0  0  0  0  0
   29.3190   39.6410   85.0680 O   0  0  0  0  0  0  0  0  0  0  0  0
   28.1970   40.2740   85.4980 C   0  0  0  0  0  0  0  0  0  0  0  0
   28.1300   41.4420   86.2450 N   0  0  0  0  0  0  0  0  0  0  0  0
   26.9510   41.9970   86.6260 C   0  0  0  0  0  0  0  0  0  0  0  0
   25.7220   41.4010   86.2430 C   0  0  0  0  0  0  0  0  0  0  0  0
   25.7320   40.1880   85.4630 C   0  0  0  0  0  0  0  0  0  0  0  0
   24.5600   39.5770   85.0700 N   0  0  0  0  0  0  0  0  0  0  0  0
   23.5240   39.1640   86.0080 C   0  0  0  0  0  0  0  0  0  0  0  0
   22.2710   40.0410   85.9310 C   0  0  0  0  0  0  0  0  0  0  0  0
   22.0270   40.9000   87.1170 N   0  0  0  0  0  4  0  0  0  0  0  0
   22.5020   42.2590   86.7400 C   0  0  0  0  0  0  0  0  0  0  0  0
   22.3010   43.2360   87.9140 C   0  0  0  0  0  0  0  0  0  0  0  0
   23.0170   42.7120   89.1140 N   0  0  0  0  0  4  0  0  0  0  0  0
   22.5420   41.3430   89.4910 C   0  0  0  0  0  0  0  0  0  0  0  0
   22.7850   40.3960   88.2960 C   0  0  0  0  0  0  0  0  0  0  0  0
   27.0220   39.6080   85.0770 C   0  0  0  0  0  0  0  0  0  0  0  0
   27.3670   38.4750   84.3470 C   0  0  0  0  0  0  0  0  0  0  0  0
   26.4300   37.4990   83.7360 C   0  0  0  0  0  0  0  0  0  0  0  0
   26.2960   37.4190   82.3070 C   0  0  0  0  0  0  0  0  0  0  0  0
   25.3740   36.4820   81.7370 C   0  0  0  0  0  0  0  0  0  0  0  0
   24.5890   35.6320   82.6020 C   0  0  0  0  0  0  0  0  0  0  0  0
   24.7240   35.7080   84.0390 C   0  0  0  0  0  0  0  0  0  0  0  0
   25.6460   36.6460   84.6060 C   0  0  0  0  0  0  0  0  0  0  0  0
   31.2640   37.5650   84.0740 C   0  0  0  0  0  0  0  0  0  0  0  0
   32.1640   36.6570   83.4530 C   0  0  0  0  0  0  0  0  0  0  0  0
   32.3464   35.0369   81.9839 H   0  0  0  0  0  0  0  0  0  0  0  0
   29.8772   35.0122   81.3866 H   0  0  0  0  0  0  0  0  0  0  0  0
   28.2834   36.6464   82.4970 H   0  0  0  0  0  0  0  0  0  0  0  0
   26.9487   42.9133   87.2346 H   0  0  0  0  0  0  0  0  0  0  0  0
   24.7677   41.8610   86.5390 H   0  0  0  0  0  0  0  0  0  0  0  0
   24.8450   38.7370   84.6090 H   0  0  0  0  0  0  0  0  0  0  0  0
   23.2404   38.1252   85.7836 H   0  0  0  0  0  0  0  0  0  0  0  0
   23.9367   39.2638   87.0228 H   0  0  0  0  0  0  0  0  0  0  0  0
   22.3665   40.6945   85.0513 H   0  0  0  0  0  0  0  0  0  0  0  0
   21.4174   39.3495   85.8740 H   0  0  0  0  0  0  0  0  0  0  0  0
   21.0600   40.9030   87.3710 H   0  0  0  0  0  0  0  0  0  0  0  0
   23.5709   42.2127   86.4845 H   0  0  0  0  0  0  0  0  0  0  0  0
   21.9245   42.6142   85.8738 H   0  0  0  0  0  0  0  0  0  0  0  0
   22.7059   44.2228   87.6453 H   0  0  0  0  0  0  0  0  0  0  0  0
   21.2280   43.3327   88.1358 H   0  0  0  0  0  0  0  0  0  0  0  0
   23.9950   42.6680   88.9100 H   0  0  0  0  0  0  0  0  0  0  0  0
   22.8520   43.3310   89.8820 H   0  0  0  0  0  0  0  0  0  0  0  0
   23.1004   40.9847   90.3684 H   0  0  0  0  0  0  0  0  0  0  0  0
   21.4708   41.3700   89.7398 H   0  0  0  0  0  0  0  0  0  0  0  0
   23.8590   40.3682   88.0597 H   0  0  0  0  0  0  0  0  0  0  0  0
   22.4454   39.3812   88.5505 H   0  0  0  0  0  0  0  0  0  0  0  0
   26.8964   38.0718   81.6564 H   0  0  0  0  0  0  0  0  0  0  0  0
   25.2643   36.4101   80.6448 H   0  0  0  0  0  0  0  0  0  0  0  0
   23.8788   34.9171   82.1609 H   0  0  0  0  0  0  0  0  0  0  0  0
   24.1257   35.0532   84.6895 H   0  0  0  0  0  0  0  0  0  0  0  0
   25.7584   36.7185   85.6978 H   0  0  0  0  0  0  0  0  0  0  0  0
   31.6462   38.2738   84.8233 H   0  0  0  0  0  0  0  0  0  0  0  0
   33.2315   36.6590   83.7182 H   0  0  0  0  0  0  0  0  0  0  0  0
  1  2  2  0
  2  3  1  0
  3  4  2  0
  4  5  1  0
  5  6  1  0
  6  7  1  0
  7  8  2  0
  8  9  1  0
  9 10  2  0
 10 11  1  0
 11 12  1  0
 12 13  1  0
 13 14  1  0
 14 15  1  0
 15 16  1  0
 16 17  1  0
 17 18  1  0
 18 19  1  0
 19 20  1  0
 11 21  2  0
 21 22  1  0
 22 23  1  0
 23 24  2  0
 24 25  1  0
 25 26  2  0
 26 27  1  0
 27 28  2  0
  4 29  1  0
 29 30  2  0
 30  1  1  0
 22  5  2  0
 28 23  1  0
 21  7  1  0
 20 15  1  0
  1 31  1  0
  2 32  1  0
  3 33  1  0
  9 34  1  0
 10 35  1  0
 12 36  1  0
 13 37  1  0
 13 38  1  0
 14 39  1  0
 14 40  1  0
 15 41  1  0
 16 42  1  0
 16 43  1  0
 17 44  1  0
 17 45  1  0
 18 46  1  0
 18 47  1  0
 19 48  1  0
 19 49  1  0
 20 50  1  0
 20 51  1  0
 24 52  1  0
 25 53  1  0
 26 54  1  0
 27 55  1  0
 28 56  1  0
 29 57  1  0
 30 58  1  0
M  CHG  2  15   1  18   1
M  END
>  <meeko>  (54) 
{"free_energy": -9.691, "intermolecular_energy": -9.157, "internal_energy": -0.782}

$$$$

     RDKit          3D

 58 62  0  0  0  0  0  0  0  0999 V2000
   25.6330   35.9780   82.2530 C   0  0  0  0  0  0  0  0  0  0  0  0
   26.7810   36.8120   82.5360 C   0  0  0  0  0  0  0  0  0  0  0  0
   26.7660   37.6970   83.6670 C   0  0  0  0  0  0  0  0  0  0  0  0
   25.6040   37.7540   84.5100 C   0  0  0  0  0  0  0  0  0  0  0  0
   25.6280   38.6780   85.6890 C   0  0  0  0  0  0  0  0  0  0  0  0
   26.7340   38.7640   86.5120 O   0  0  0  0  0  0  0  0  0  0  0  0
   26.4160   39.6760   87.4660 C   0  0  0  0  0  0  0  0  0  0  0  0
   27.2160   40.0990   88.5180 N   0  0  0  0  0  0  0  0  0  0  0  0
   26.8020   41.0220   89.4230 C   0  0  0  0  0  0  0  0  0  0  0  0
   25.5180   41.6140   89.3070 C   0  0  0  0  0  0  0  0  0  0  0  0
   24.6450   41.2130   88.2320 C   0  0  0  0  0  0  0  0  0  0  0  0
   23.3890   41.7630   88.0830 N   0  0  0  0  0  0  0  0  0  0  0  0
   23.1070   42.8700   87.1770 C   0  0  0  0  0  0  0  0  0  0  0  0
   23.7980   44.1700   87.5980 C   0  0  0  0  0  0  0  0  0  0  0  0
   24.9480   44.5770   86.7510 N   0  0  0  0  0  4  0  0  0  0  0  0
   24.8260   43.7890   85.4950 C   0  0  0  0  0  0  0  0  0  0  0  0
   25.9850   44.1320   84.5390 C   0  0  0  0  0  0  0  0  0  0  0  0
   27.2820   43.8740   85.2320 N   0  0  0  0  0  4  0  0  0  0  0  0
   27.4030   44.6630   86.4990 C   0  0  0  0  0  0  0  0  0  0  0  0
   26.2370   44.2700   87.4320 C   0  0  0  0  0  0  0  0  0  0  0  0
   25.1180   40.2070   87.2770 C   0  0  0  0  0  0  0  0  0  0  0  0
   24.5350   39.6180   86.1580 C   0  0  0  0  0  0  0  0  0  0  0  0
   23.1780   39.8920   85.6230 C   0  0  0  0  0  0  0  0  0  0  0  0
   22.0390   39.1780   86.1310 C   0  0  0  0  0  0  0  0  0  0  0  0
   20.7400   39.4450   85.5910 C   0  0  0  0  0  0  0  0  0  0  0  0
   20.5890   40.4250   84.5400 C   0  0  0  0  0  0  0  0  0  0  0  0
   21.7310   41.1470   84.0280 C   0  0  0  0  0  0  0  0  0  0  0  0
   23.0290   40.8770   84.5700 C   0  0  0  0  0  0  0  0  0  0  0  0
   24.4610   36.9100   84.2010 C   0  0  0  0  0  0  0  0  0  0  0  0
   24.4700   36.0300   83.0850 C   0  0  0  0  0  0  0  0  0  0  0  0
   25.6545   35.2970   81.3894 H   0  0  0  0  0  0  0  0  0  0  0  0
   27.6661   36.7682   81.8843 H   0  0  0  0  0  0  0  0  0  0  0  0
   27.6398   38.3280   83.8867 H   0  0  0  0  0  0  0  0  0  0  0  0
   27.4656   41.3125   90.2508 H   0  0  0  0  0  0  0  0  0  0  0  0
   25.1908   42.3736   90.0322 H   0  0  0  0  0  0  0  0  0  0  0  0
   23.1410   42.0990   88.9910 H   0  0  0  0  0  0  0  0  0  0  0  0
   23.4544   42.5973   86.1696 H   0  0  0  0  0  0  0  0  0  0  0  0
   22.0218   43.0487   87.1991 H   0  0  0  0  0  0  0  0  0  0  0  0
   23.0513   44.9773   87.5690 H   0  0  0  0  0  0  0  0  0  0  0  0
   24.2078   43.9869   88.6022 H   0  0  0  0  0  0  0  0  0  0  0  0
   24.9380   45.5600   86.5730 H   0  0  0  0  0  0  0  0  0  0  0  0
   24.8575   42.7158   85.7344 H   0  0  0  0  0  0  0  0  0  0  0  0
   23.8718   44.0360   85.0066 H   0  0  0  0  0  0  0  0  0  0  0  0
   25.9175   43.5045   83.6381 H   0  0  0  0  0  0  0  0  0  0  0  0
   25.9244   45.1910   84.2479 H   0  0  0  0  0  0  0  0  0  0  0  0
   27.3390   42.9010   85.4540 H   0  0  0  0  0  0  0  0  0  0  0  0
   28.0300   44.1330   84.6200 H   0  0  0  0  0  0  0  0  0  0  0  0
   28.3621   44.4363   86.9875 H   0  0  0  0  0  0  0  0  0  0  0  0
   27.3637   45.7399   86.2785 H   0  0  0  0  0  0  0  0  0  0  0  0
   26.2894   43.1941   87.6551 H   0  0  0  0  0  0  0  0  0  0  0  0
   26.3054   44.8368   88.3723 H   0  0  0  0  0  0  0  0  0  0  0  0
   22.1642   38.4315   86.9292 H   0  0  0  0  0  0  0  0  0  0  0  0
   19.8609   38.9064   85.9746 H   0  0  0  0  0  0  0  0  0  0  0  0
   19.5905   40.6242   84.1238 H   0  0  0  0  0  0  0  0  0  0  0  0
   21.6051   41.8951   83.2315 H   0  0  0  0  0  0  0  0  0  0  0  0
   23.9094   41.4150   84.1887 H   0  0  0  0  0  0  0  0  0  0  0  0
   23.5702   36.9535   84.8448 H   0  0  0  0  0  0  0  0  0  0  0  0
   23.5966   35.3988   82.8643 H   0  0  0  0  0  0  0  0  0  0  0  0
  1  2  2  0
  2  3  1  0
  3  4  2  0
  4  5  1  0
  5  6  1  0
  6  7  1  0
  7  8  2  0
  8  9  1  0
  9 10  2  0
 10 11  1  0
 11 12  1  0
 12 13  1  0
 13 14  1  0
 14 15  1  0
 15 16  1  0
 16 17  1  0
 17 18  1  0
 18 19  1  0
 19 20  1  0
 11 21  2  0
 21 22  1  0
 22 23  1  0
 23 24  2  0
 24 25  1  0
 25 26  2  0
 26 27  1  0
 27 28  2  0
  4 29  1  0
 29 30  2  0
 30  1  1  0
 22  5  2  0
 28 23  1  0
 21  7  1  0
 20 15  1  0
  1 31  1  0
  2 32  1  0
  3 33  1  0
  9 34  1  0
 10 35  1  0
 12 36  1  0
 13 37  1  0
 13 38  1  0
 14 39  1  0
 14 40  1  0
 15 41  1  0
 16 42  1  0
 16 43  1  0
 17 44  1  0
 17 45  1  0
 18 46  1  0
 18 47  1  0
 19 48  1  0
 19 49  1  0
 20 50  1  0
 20 51  1  0
 24 52  1  0
 25 53  1  0
 26 54  1  0
 27 55  1  0
 28 56  1  0
 29 57  1  0
 30 58  1  0
M  CHG  2  15   1  18   1
M  END
>  <meeko>  (55) 
{"free_energy": -9.683, "intermolecular_energy": -8.662, "internal_energy": -1.266}

$$$$

     RDKit          3D

 58 62  0  0  0  0  0  0  0  0999 V2000
   25.4390   35.4680   82.8970 C   0  0  0  0  0  0  0  0  0  0  0  0
   24.4230   36.0170   83.7680 C   0  0  0  0  0  0  0  0  0  0  0  0
   24.4870   37.3940   84.1690 C   0  0  0  0  0  0  0  0  0  0  0  0
   25.5690   38.2190   83.7080 C   0  0  0  0  0  0  0  0  0  0  0  0
   25.5970   39.6550   84.1360 C   0  0  0  0  0  0  0  0  0  0  0  0
   24.4320   40.3510   84.3930 O   0  0  0  0  0  0  0  0  0  0  0  0
   24.8190   41.6050   84.7440 C   0  0  0  0  0  0  0  0  0  0  0  0
   23.9970   42.6660   85.0950 N   0  0  0  0  0  0  0  0  0  0  0  0
   24.4870   43.8860   85.4320 C   0  0  0  0  0  0  0  0  0  0  0  0
   25.8870   44.1150   85.4610 C   0  0  0  0  0  0  0  0  0  0  0  0
   26.7880   43.0460   85.1070 C   0  0  0  0  0  0  0  0  0  0  0  0
   28.1560   43.2250   85.1210 N   0  0  0  0  0  0  0  0  0  0  0  0
   28.9040   43.5430   86.3300 C   0  0  0  0  0  0  0  0  0  0  0  0
   30.0680   42.5780   86.5770 C   0  0  0  0  0  0  0  0  0  0  0  0
   30.3070   42.2280   87.9990 N   0  0  0  0  0  4  0  0  0  0  0  0
   29.5860   43.2550   88.7980 C   0  0  0  0  0  0  0  0  0  0  0  0
   29.7770   42.9880   90.3030 C   0  0  0  0  0  0  0  0  0  0  0  0
   31.2370   42.9680   90.6140 N   0  0  0  0  0  4  0  0  0  0  0  0
   31.9630   41.9370   89.8080 C   0  0  0  0  0  0  0  0  0  0  0  0
   31.7640   42.2580   88.3110 C   0  0  0  0  0  0  0  0  0  0  0  0
   26.2280   41.7430   84.7370 C   0  0  0  0  0  0  0  0  0  0  0  0
   26.8100   40.5380   84.3540 C   0  0  0  0  0  0  0  0  0  0  0  0
   28.2620   40.2660   84.2130 C   0  0  0  0  0  0  0  0  0  0  0  0
   29.0210   40.8970   83.1690 C   0  0  0  0  0  0  0  0  0  0  0  0
   30.4180   40.6080   83.0390 C   0  0  0  0  0  0  0  0  0  0  0  0
   31.0480   39.6850   83.9550 C   0  0  0  0  0  0  0  0  0  0  0  0
   30.2880   39.0510   85.0080 C   0  0  0  0  0  0  0  0  0  0  0  0
   28.8910   39.3410   85.1340 C   0  0  0  0  0  0  0  0  0  0  0  0
   26.5810   37.6430   82.8380 C   0  0  0  0  0  0  0  0  0  0  0  0
   26.5220   36.2810   82.4340 C   0  0  0  0  0  0  0  0  0  0  0  0
   25.3786   34.4143   82.5872 H   0  0  0  0  0  0  0  0  0  0  0  0
   23.6006   35.3788   84.1234 H   0  0  0  0  0  0  0  0  0  0  0  0
   23.7116   37.8152   84.8258 H   0  0  0  0  0  0  0  0  0  0  0  0
   23.7944   44.7025   85.6843 H   0  0  0  0  0  0  0  0  0  0  0  0
   26.2819   45.0998   85.7511 H   0  0  0  0  0  0  0  0  0  0  0  0
   28.3250   43.9910   84.5000 H   0  0  0  0  0  0  0  0  0  0  0  0
   29.3061   44.5626   86.2369 H   0  0  0  0  0  0  0  0  0  0  0  0
   28.2128   43.4540   87.1810 H   0  0  0  0  0  0  0  0  0  0  0  0
   29.8614   41.6477   86.0276 H   0  0  0  0  0  0  0  0  0  0  0  0
   30.9743   43.0985   86.2340 H   0  0  0  0  0  0  0  0  0  0  0  0
   29.9840   41.3050   88.2060 H   0  0  0  0  0  0  0  0  0  0  0  0
   29.9828   44.2511   88.5524 H   0  0  0  0  0  0  0  0  0  0  0  0
   28.5134   43.2087   88.5583 H   0  0  0  0  0  0  0  0  0  0  0  0
   29.2876   43.7840   90.8834 H   0  0  0  0  0  0  0  0  0  0  0  0
   29.3284   42.0190   90.5674 H   0  0  0  0  0  0  0  0  0  0  0  0
   31.6220   43.8670   90.4070 H   0  0  0  0  0  0  0  0  0  0  0  0
   31.3550   42.7580   91.5850 H   0  0  0  0  0  0  0  0  0  0  0  0
   33.0350   41.9610   90.0536 H   0  0  0  0  0  0  0  0  0  0  0  0
   31.5698   40.9350   90.0347 H   0  0  0  0  0  0  0  0  0  0  0  0
   32.1680   43.2572   88.0910 H   0  0  0  0  0  0  0  0  0  0  0  0
   32.2914   41.5128   87.6973 H   0  0  0  0  0  0  0  0  0  0  0  0
   28.5330   41.5968   82.4747 H   0  0  0  0  0  0  0  0  0  0  0  0
   31.0091   41.0871   82.2446 H   0  0  0  0  0  0  0  0  0  0  0  0
   32.1200   39.4621   83.8494 H   0  0  0  0  0  0  0  0  0  0  0  0
   30.7766   38.3539   85.7046 H   0  0  0  0  0  0  0  0  0  0  0  0
   28.2976   38.8631   85.9274 H   0  0  0  0  0  0  0  0  0  0  0  0
   27.4099   38.2740   82.4847 H   0  0  0  0  0  0  0  0  0  0  0  0
   27.2962   35.8591   81.7763 H   0  0  0  0  0  0  0  0  0  0  0  0
  1  2  2  0
  2  3  1  0
  3  4  2  0
  4  5  1  0
  5  6  1  0
  6  7  1  0
  7  8  2  0
  8  9  1  0
  9 10  2  0
 10 11  1  0
 11 12  1  0
 12 13  1  0
 13 14  1  0
 14 15  1  0
 15 16  1  0
 16 17  1  0
 17 18  1  0
 18 19  1  0
 19 20  1  0
 11 21  2  0
 21 22  1  0
 22 23  1  0
 23 24  2  0
 24 25  1  0
 25 26  2  0
 26 27  1  0
 27 28  2  0
  4 29  1  0
 29 30  2  0
 30  1  1  0
 22  5  2  0
 28 23  1  0
 21  7  1  0
 20 15  1  0
  1 31  1  0
  2 32  1  0
  3 33  1  0
  9 34  1  0
 10 35  1  0
 12 36  1  0
 13 37  1  0
 13 38  1  0
 14 39  1  0
 14 40  1  0
 15 41  1  0
 16 42  1  0
 16 43  1  0
 17 44  1  0
 17 45  1  0
 18 46  1  0
 18 47  1  0
 19 48  1  0
 19 49  1  0
 20 50  1  0
 20 51  1  0
 24 52  1  0
 25 53  1  0
 26 54  1  0
 27 55  1  0
 28 56  1  0
 29 57  1  0
 30 58  1  0
M  CHG  2  15   1  18   1
M  END
>  <meeko>  (56) 
{"free_energy": -9.683, "intermolecular_energy": -8.47, "internal_energy": -1.457}

$$$$

     RDKit          3D

 58 62  0  0  0  0  0  0  0  0999 V2000
   21.9820   41.5560   89.8490 C   0  0  0  0  0  0  0  0  0  0  0  0
   22.0170   41.7650   88.4180 C   0  0  0  0  0  0  0  0  0  0  0  0
   23.2760   41.9020   87.7420 C   0  0  0  0  0  0  0  0  0  0  0  0
   24.4980   41.8390   88.4940 C   0  0  0  0  0  0  0  0  0  0  0  0
   25.7950   41.9730   87.7550 C   0  0  0  0  0  0  0  0  0  0  0  0
   26.7310   42.9240   88.1120 O   0  0  0  0  0  0  0  0  0  0  0  0
   27.7630   42.7720   87.2430 C   0  0  0  0  0  0  0  0  0  0  0  0
   28.9410   43.5040   87.2090 N   0  0  0  0  0  0  0  0  0  0  0  0
   29.9170   43.2720   86.2940 C   0  0  0  0  0  0  0  0  0  0  0  0
   29.7720   42.2330   85.3390 C   0  0  0  0  0  0  0  0  0  0  0  0
   28.5690   41.4380   85.3310 C   0  0  0  0  0  0  0  0  0  0  0  0
   28.3870   40.4190   84.4190 N   0  0  0  0  0  0  0  0  0  0  0  0
   29.4660   39.8810   83.6010 C   0  0  0  0  0  0  0  0  0  0  0  0
   30.2640   38.7880   84.3190 C   0  0  0  0  0  0  0  0  0  0  0  0
   30.2600   37.4620   83.6510 N   0  0  0  0  0  4  0  0  0  0  0  0
   31.2380   37.5650   82.5340 C   0  0  0  0  0  0  0  0  0  0  0  0
   31.3070   36.2330   81.7640 C   0  0  0  0  0  0  0  0  0  0  0  0
   29.9420   35.8820   81.2730 N   0  0  0  0  0  4  0  0  0  0  0  0
   28.9560   35.7810   82.3960 C   0  0  0  0  0  0  0  0  0  0  0  0
   28.9040   37.1430   83.1230 C   0  0  0  0  0  0  0  0  0  0  0  0
   27.5290   41.7210   86.3240 C   0  0  0  0  0  0  0  0  0  0  0  0
   26.2840   41.1540   86.5770 C   0  0  0  0  0  0  0  0  0  0  0  0
   25.6580   40.0320   85.8330 C   0  0  0  0  0  0  0  0  0  0  0  0
   24.5690   40.2780   84.9280 C   0  0  0  0  0  0  0  0  0  0  0  0
   23.9680   39.1800   84.2320 C   0  0  0  0  0  0  0  0  0  0  0  0
   24.4600   37.8390   84.4490 C   0  0  0  0  0  0  0  0  0  0  0  0
   25.5570   37.5880   85.3560 C   0  0  0  0  0  0  0  0  0  0  0  0
   26.1550   38.6880   86.0510 C   0  0  0  0  0  0  0  0  0  0  0  0
   24.4370   41.6350   89.9320 C   0  0  0  0  0  0  0  0  0  0  0  0
   23.1940   41.4950   90.6090 C   0  0  0  0  0  0  0  0  0  0  0  0
   21.0139   41.4427   90.3588 H   0  0  0  0  0  0  0  0  0  0  0  0
   21.0781   41.8190   87.8474 H   0  0  0  0  0  0  0  0  0  0  0  0
   23.3047   42.0545   86.6530 H   0  0  0  0  0  0  0  0  0  0  0  0
   30.8250   43.8930   86.2932 H   0  0  0  0  0  0  0  0  0  0  0  0
   30.5715   42.0353   84.6098 H   0  0  0  0  0  0  0  0  0  0  0  0
   27.7150   40.7690   83.7670 H   0  0  0  0  0  0  0  0  0  0  0  0
   29.0334   39.4556   82.6834 H   0  0  0  0  0  0  0  0  0  0  0  0
   30.1584   40.7066   83.3796 H   0  0  0  0  0  0  0  0  0  0  0  0
   31.3078   39.1256   84.3995 H   0  0  0  0  0  0  0  0  0  0  0  0
   29.7740   38.6413   85.2929 H   0  0  0  0  0  0  0  0  0  0  0  0
   30.5040   36.7320   84.2900 H   0  0  0  0  0  0  0  0  0  0  0  0
   30.9235   38.3654   81.8482 H   0  0  0  0  0  0  0  0  0  0  0  0
   32.2318   37.7934   82.9465 H   0  0  0  0  0  0  0  0  0  0  0  0
   31.9908   36.3369   80.9086 H   0  0  0  0  0  0  0  0  0  0  0  0
   31.6773   35.4390   82.4291 H   0  0  0  0  0  0  0  0  0  0  0  0
   29.6350   36.5920   80.6400 H   0  0  0  0  0  0  0  0  0  0  0  0
   29.9860   34.9990   80.8060 H   0  0  0  0  0  0  0  0  0  0  0  0
   27.9612   35.5351   81.9960 H   0  0  0  0  0  0  0  0  0  0  0  0
   29.2610   34.9899   83.0968 H   0  0  0  0  0  0  0  0  0  0  0  0
   28.5892   37.9260   82.4175 H   0  0  0  0  0  0  0  0  0  0  0  0
   28.1836   37.0945   83.9528 H   0  0  0  0  0  0  0  0  0  0  0  0
   24.1997   41.3022   84.7710 H   0  0  0  0  0  0  0  0  0  0  0  0
   23.1354   39.3569   83.5352 H   0  0  0  0  0  0  0  0  0  0  0  0
   23.9932   36.9973   83.9165 H   0  0  0  0  0  0  0  0  0  0  0  0
   25.9281   36.5641   85.5106 H   0  0  0  0  0  0  0  0  0  0  0  0
   26.9883   38.5137   86.7476 H   0  0  0  0  0  0  0  0  0  0  0  0
   25.3723   41.5879   90.5090 H   0  0  0  0  0  0  0  0  0  0  0  0
   23.1643   41.3425   91.6980 H   0  0  0  0  0  0  0  0  0  0  0  0
  1  2  2  0
  2  3  1  0
  3  4  2  0
  4  5  1  0
  5  6  1  0
  6  7  1  0
  7  8  2  0
  8  9  1  0
  9 10  2  0
 10 11  1  0
 11 12  1  0
 12 13  1  0
 13 14  1  0
 14 15  1  0
 15 16  1  0
 16 17  1  0
 17 18  1  0
 18 19  1  0
 19 20  1  0
 11 21  2  0
 21 22  1  0
 22 23  1  0
 23 24  2  0
 24 25  1  0
 25 26  2  0
 26 27  1  0
 27 28  2  0
  4 29  1  0
 29 30  2  0
 30  1  1  0
 22  5  2  0
 28 23  1  0
 21  7  1  0
 20 15  1  0
  1 31  1  0
  2 32  1  0
  3 33  1  0
  9 34  1  0
 10 35  1  0
 12 36  1  0
 13 37  1  0
 13 38  1  0
 14 39  1  0
 14 40  1  0
 15 41  1  0
 16 42  1  0
 16 43  1  0
 17 44  1  0
 17 45  1  0
 18 46  1  0
 18 47  1  0
 19 48  1  0
 19 49  1  0
 20 50  1  0
 20 51  1  0
 24 52  1  0
 25 53  1  0
 26 54  1  0
 27 55  1  0
 28 56  1  0
 29 57  1  0
 30 58  1  0
M  CHG  2  15   1  18   1
M  END
>  <meeko>  (57) 
{"free_energy": -9.621, "intermolecular_energy": -8.569, "internal_energy": -1.274}

$$$$

     RDKit          3D

 58 62  0  0  0  0  0  0  0  0999 V2000
   32.3170   39.5380   83.5680 C   0  0  0  0  0  0  0  0  0  0  0  0
   31.9470   38.2750   84.1690 C   0  0  0  0  0  0  0  0  0  0  0  0
   30.5650   37.8910   84.2440 C   0  0  0  0  0  0  0  0  0  0  0  0
   29.5540   38.7710   83.7280 C   0  0  0  0  0  0  0  0  0  0  0  0
   28.1230   38.3330   83.8110 C   0  0  0  0  0  0  0  0  0  0  0  0
   27.6970   37.1570   83.2260 O   0  0  0  0  0  0  0  0  0  0  0  0
   26.3670   37.0750   83.4850 C   0  0  0  0  0  0  0  0  0  0  0  0
   25.5010   36.0610   83.0990 N   0  0  0  0  0  0  0  0  0  0  0  0
   24.1800   36.0730   83.4110 C   0  0  0  0  0  0  0  0  0  0  0  0
   23.6340   37.1340   84.1800 C   0  0  0  0  0  0  0  0  0  0  0  0
   24.4890   38.2130   84.6090 C   0  0  0  0  0  0  0  0  0  0  0  0
   23.9990   39.2630   85.3570 N   0  0  0  0  0  0  0  0  0  0  0  0
   23.2350   39.0790   86.5840 C   0  0  0  0  0  0  0  0  0  0  0  0
   22.1190   40.1150   86.7480 C   0  0  0  0  0  0  0  0  0  0  0  0
   22.4790   41.3080   87.5540 N   0  0  0  0  0  4  0  0  0  0  0  0
   23.5550   40.8650   88.4810 C   0  0  0  0  0  0  0  0  0  0  0  0
   24.0010   42.0350   89.3760 C   0  0  0  0  0  0  0  0  0  0  0  0
   22.8160   42.5630   90.1150 N   0  0  0  0  0  4  0  0  0  0  0  0
   21.7310   43.0060   89.1840 C   0  0  0  0  0  0  0  0  0  0  0  0
   21.3010   41.7970   88.3250 C   0  0  0  0  0  0  0  0  0  0  0  0
   25.9090   38.1760   84.2480 C   0  0  0  0  0  0  0  0  0  0  0  0
   26.9720   39.0390   84.4990 C   0  0  0  0  0  0  0  0  0  0  0  0
   26.9120   40.3130   85.2570 C   0  0  0  0  0  0  0  0  0  0  0  0
   26.6890   41.5560   84.5720 C   0  0  0  0  0  0  0  0  0  0  0  0
   26.6520   42.7780   85.3190 C   0  0  0  0  0  0  0  0  0  0  0  0
   26.8410   42.7480   86.7510 C   0  0  0  0  0  0  0  0  0  0  0  0
   27.0620   41.4990   87.4440 C   0  0  0  0  0  0  0  0  0  0  0  0
   27.1000   40.2800   86.6940 C   0  0  0  0  0  0  0  0  0  0  0  0
   29.9500   40.0370   83.1340 C   0  0  0  0  0  0  0  0  0  0  0  0
   31.3160   40.4230   83.0530 C   0  0  0  0  0  0  0  0  0  0  0  0
   33.3781   39.8213   83.5061 H   0  0  0  0  0  0  0  0  0  0  0  0
   32.7250   37.6081   84.5689 H   0  0  0  0  0  0  0  0  0  0  0  0
   30.2824   36.9280   84.6943 H   0  0  0  0  0  0  0  0  0  0  0  0
   23.5290   35.2561   83.0661 H   0  0  0  0  0  0  0  0  0  0  0  0
   22.5668   37.1330   84.4466 H   0  0  0  0  0  0  0  0  0  0  0  0
   23.3890   39.7610   84.7410 H   0  0  0  0  0  0  0  0  0  0  0  0
   22.7842   38.0757   86.5705 H   0  0  0  0  0  0  0  0  0  0  0  0
   23.9290   39.2026   87.4285 H   0  0  0  0  0  0  0  0  0  0  0  0
   21.8229   40.4580   85.7457 H   0  0  0  0  0  0  0  0  0  0  0  0
   21.3102   39.6089   87.2955 H   0  0  0  0  0  0  0  0  0  0  0  0
   22.7800   42.0630   86.9710 H   0  0  0  0  0  0  0  0  0  0  0  0
   23.1765   40.0480   89.1129 H   0  0  0  0  0  0  0  0  0  0  0  0
   24.4155   40.5161   87.8913 H   0  0  0  0  0  0  0  0  0  0  0  0
   24.7561   41.6826   90.0941 H   0  0  0  0  0  0  0  0  0  0  0  0
   24.4363   42.8319   88.7552 H   0  0  0  0  0  0  0  0  0  0  0  0
   22.4570   41.8400   90.7050 H   0  0  0  0  0  0  0  0  0  0  0  0
   23.1050   43.3460   90.6670 H   0  0  0  0  0  0  0  0  0  0  0  0
   20.8716   43.3741   89.7636 H   0  0  0  0  0  0  0  0  0  0  0  0
   22.0961   43.8177   88.5376 H   0  0  0  0  0  0  0  0  0  0  0  0
   20.9282   40.9942   88.9781 H   0  0  0  0  0  0  0  0  0  0  0  0
   20.5015   42.0982   87.6321 H   0  0  0  0  0  0  0  0  0  0  0  0
   26.5476   41.5694   83.4812 H   0  0  0  0  0  0  0  0  0  0  0  0
   26.4804   43.7350   84.8044 H   0  0  0  0  0  0  0  0  0  0  0  0
   26.8164   43.6882   87.3215 H   0  0  0  0  0  0  0  0  0  0  0  0
   27.1994   41.4852   88.5353 H   0  0  0  0  0  0  0  0  0  0  0  0
   27.2712   39.3218   87.2064 H   0  0  0  0  0  0  0  0  0  0  0  0
   29.1760   40.7112   82.7385 H   0  0  0  0  0  0  0  0  0  0  0  0
   31.5992   41.3856   82.6022 H   0  0  0  0  0  0  0  0  0  0  0  0
  1  2  2  0
  2  3  1  0
  3  4  2  0
  4  5  1  0
  5  6  1  0
  6  7  1  0
  7  8  2  0
  8  9  1  0
  9 10  2  0
 10 11  1  0
 11 12  1  0
 12 13  1  0
 13 14  1  0
 14 15  1  0
 15 16  1  0
 16 17  1  0
 17 18  1  0
 18 19  1  0
 19 20  1  0
 11 21  2  0
 21 22  1  0
 22 23  1  0
 23 24  2  0
 24 25  1  0
 25 26  2  0
 26 27  1  0
 27 28  2  0
  4 29  1  0
 29 30  2  0
 30  1  1  0
 22  5  2  0
 28 23  1  0
 21  7  1  0
 20 15  1  0
  1 31  1  0
  2 32  1  0
  3 33  1  0
  9 34  1  0
 10 35  1  0
 12 36  1  0
 13 37  1  0
 13 38  1  0
 14 39  1  0
 14 40  1  0
 15 41  1  0
 16 42  1  0
 16 43  1  0
 17 44  1  0
 17 45  1  0
 18 46  1  0
 18 47  1  0
 19 48  1  0
 19 49  1  0
 20 50  1  0
 20 51  1  0
 24 52  1  0
 25 53  1  0
 26 54  1  0
 27 55  1  0
 28 56  1  0
 29 57  1  0
 30 58  1  0
M  CHG  2  15   1  18   1
M  END
>  <meeko>  (58) 
{"free_energy": -9.583, "intermolecular_energy": -8.163, "internal_energy": -1.629}

$$$$

     RDKit          3D

 58 62  0  0  0  0  0  0  0  0999 V2000
   28.6210   36.5070   82.8680 C   0  0  0  0  0  0  0  0  0  0  0  0
   27.2620   36.2810   82.4270 C   0  0  0  0  0  0  0  0  0  0  0  0
   26.2040   37.1360   82.8870 C   0  0  0  0  0  0  0  0  0  0  0  0
   26.5020   38.2110   83.7930 C   0  0  0  0  0  0  0  0  0  0  0  0
   25.3770   39.0920   84.2430 C   0  0  0  0  0  0  0  0  0  0  0  0
   24.0590   38.7080   84.0920 O   0  0  0  0  0  0  0  0  0  0  0  0
   23.3160   39.7280   84.5910 C   0  0  0  0  0  0  0  0  0  0  0  0
   21.9310   39.7990   84.6600 N   0  0  0  0  0  0  0  0  0  0  0  0
   21.2810   40.8710   85.1810 C   0  0  0  0  0  0  0  0  0  0  0  0
   22.0130   41.9660   85.7080 C   0  0  0  0  0  0  0  0  0  0  0  0
   23.4540   41.9450   85.6640 C   0  0  0  0  0  0  0  0  0  0  0  0
   24.2030   42.9900   86.1650 N   0  0  0  0  0  0  0  0  0  0  0  0
   24.4830   43.1600   87.5840 C   0  0  0  0  0  0  0  0  0  0  0  0
   23.8110   44.4020   88.1760 C   0  0  0  0  0  0  0  0  0  0  0  0
   22.9580   44.1520   89.3660 N   0  0  0  0  0  4  0  0  0  0  0  0
   22.7350   42.6820   89.4050 C   0  0  0  0  0  0  0  0  0  0  0  0
   21.8480   42.3110   90.6080 C   0  0  0  0  0  0  0  0  0  0  0  0
   20.5620   43.0640   90.5160 N   0  0  0  0  0  4  0  0  0  0  0  0
   20.7860   44.5440   90.4730 C   0  0  0  0  0  0  0  0  0  0  0  0
   21.6580   44.8700   89.2410 C   0  0  0  0  0  0  0  0  0  0  0  0
   24.1260   40.7780   85.0850 C   0  0  0  0  0  0  0  0  0  0  0  0
   25.4670   40.4560   84.8980 C   0  0  0  0  0  0  0  0  0  0  0  0
   26.6350   41.2920   85.2710 C   0  0  0  0  0  0  0  0  0  0  0  0
   27.3020   41.0900   86.5280 C   0  0  0  0  0  0  0  0  0  0  0  0
   28.4180   41.9180   86.8760 C   0  0  0  0  0  0  0  0  0  0  0  0
   28.8580   42.9470   85.9640 C   0  0  0  0  0  0  0  0  0  0  0  0
   28.1920   43.1520   84.6970 C   0  0  0  0  0  0  0  0  0  0  0  0
   27.0760   42.3230   84.3530 C   0  0  0  0  0  0  0  0  0  0  0  0
   27.8750   38.4150   84.2260 C   0  0  0  0  0  0  0  0  0  0  0  0
   28.9270   37.5740   83.7720 C   0  0  0  0  0  0  0  0  0  0  0  0
   29.4272   35.8525   82.5051 H   0  0  0  0  0  0  0  0  0  0  0  0
   27.0387   35.4529   81.7382 H   0  0  0  0  0  0  0  0  0  0  0  0
   25.1710   36.9690   82.5477 H   0  0  0  0  0  0  0  0  0  0  0  0
   20.1813   40.8906   85.1946 H   0  0  0  0  0  0  0  0  0  0  0  0
   21.4848   42.8252   86.1472 H   0  0  0  0  0  0  0  0  0  0  0  0
   23.7110   43.8170   85.8940 H   0  0  0  0  0  0  0  0  0  0  0  0
   24.1191   42.2728   88.1229 H   0  0  0  0  0  0  0  0  0  0  0  0
   25.5701   43.2868   87.6945 H   0  0  0  0  0  0  0  0  0  0  0  0
   24.6007   45.1108   88.4660 H   0  0  0  0  0  0  0  0  0  0  0  0
   23.1399   44.7881   87.3946 H   0  0  0  0  0  0  0  0  0  0  0  0
   23.3950   44.4830   90.2020 H   0  0  0  0  0  0  0  0  0  0  0  0
   22.2387   42.3649   88.4760 H   0  0  0  0  0  0  0  0  0  0  0  0
   23.7056   42.1740   89.5042 H   0  0  0  0  0  0  0  0  0  0  0  0
   21.6439   41.2302   90.5960 H   0  0  0  0  0  0  0  0  0  0  0  0
   22.3642   42.5712   91.5439 H   0  0  0  0  0  0  0  0  0  0  0  0
   20.0860   42.7870   89.6820 H   0  0  0  0  0  0  0  0  0  0  0  0
   20.0050   42.8480   91.3180 H   0  0  0  0  0  0  0  0  0  0  0  0
   19.8199   45.0637   90.3922 H   0  0  0  0  0  0  0  0  0  0  0  0
   21.2911   44.8764   91.3919 H   0  0  0  0  0  0  0  0  0  0  0  0
   21.1419   44.5428   88.3263 H   0  0  0  0  0  0  0  0  0  0  0  0
   21.8349   45.9543   89.1860 H   0  0  0  0  0  0  0  0  0  0  0  0
   26.9580   40.3053   87.2178 H   0  0  0  0  0  0  0  0  0  0  0  0
   28.9376   41.7704   87.8342 H   0  0  0  0  0  0  0  0  0  0  0  0
   29.7121   43.5842   86.2368 H   0  0  0  0  0  0  0  0  0  0  0  0
   28.5382   43.9348   84.0061 H   0  0  0  0  0  0  0  0  0  0  0  0
   26.5552   42.4684   83.3950 H   0  0  0  0  0  0  0  0  0  0  0  0
   28.1043   39.2375   84.9195 H   0  0  0  0  0  0  0  0  0  0  0  0
   29.9604   37.7404   84.1101 H   0  0  0  0  0  0  0  0  0  0  0  0
  1  2  2  0
  2  3  1  0
  3  4  2  0
  4  5  1  0
  5  6  1  0
  6  7  1  0
  7  8  2  0
  8  9  1  0
  9 10  2  0
 10 11  1  0
 11 12  1  0
 12 13  1  0
 13 14  1  0
 14 15  1  0
 15 16  1  0
 16 17  1  0
 17 18  1  0
 18 19  1  0
 19 20  1  0
 11 21  2  0
 21 22  1  0
 22 23  1  0
 23 24  2  0
 24 25  1  0
 25 26  2  0
 26 27  1  0
 27 28  2  0
  4 29  1  0
 29 30  2  0
 30  1  1  0
 22  5  2  0
 28 23  1  0
 21  7  1  0
 20 15  1  0
  1 31  1  0
  2 32  1  0
  3 33  1  0
  9 34  1  0
 10 35  1  0
 12 36  1  0
 13 37  1  0
 13 38  1  0
 14 39  1  0
 14 40  1  0
 15 41  1  0
 16 42  1  0
 16 43  1  0
 17 44  1  0
 17 45  1  0
 18 46  1  0
 18 47  1  0
 19 48  1  0
 19 49  1  0
 20 50  1  0
 20 51  1  0
 24 52  1  0
 25 53  1  0
 26 54  1  0
 27 55  1  0
 28 56  1  0
 29 57  1  0
 30 58  1  0
M  CHG  2  15   1  18   1
M  END
>  <meeko>  (59) 
{"free_energy": -9.571, "intermolecular_energy": -8.326, "internal_energy": -1.45}

$$$$

     RDKit          3D

 58 62  0  0  0  0  0  0  0  0999 V2000
   30.5520   44.4560   86.5380 C   0  0  0  0  0  0  0  0  0  0  0  0
   31.0730   43.1160   86.7050 C   0  0  0  0  0  0  0  0  0  0  0  0
   30.3200   41.9870   86.2330 C   0  0  0  0  0  0  0  0  0  0  0  0
   29.0460   42.1960   85.6030 C   0  0  0  0  0  0  0  0  0  0  0  0
   28.2940   40.9970   85.1110 C   0  0  0  0  0  0  0  0  0  0  0  0
   28.8760   40.0880   84.2490 O   0  0  0  0  0  0  0  0  0  0  0  0
   27.9270   39.1480   84.0070 C   0  0  0  0  0  0  0  0  0  0  0  0
   28.0490   38.0270   83.1960 N   0  0  0  0  0  0  0  0  0  0  0  0
   27.0340   37.1420   83.0200 C   0  0  0  0  0  0  0  0  0  0  0  0
   25.7980   37.3250   83.6920 C   0  0  0  0  0  0  0  0  0  0  0  0
   25.6180   38.4710   84.5480 C   0  0  0  0  0  0  0  0  0  0  0  0
   24.4320   38.6870   85.2200 N   0  0  0  0  0  0  0  0  0  0  0  0
   23.2950   39.3780   84.6260 C   0  0  0  0  0  0  0  0  0  0  0  0
   22.2250   39.7520   85.6560 C   0  0  0  0  0  0  0  0  0  0  0  0
   21.0300   38.8710   85.6730 N   0  0  0  0  0  4  0  0  0  0  0  0
   21.2800   37.8650   86.7410 C   0  0  0  0  0  0  0  0  0  0  0  0
   20.0940   36.8880   86.8390 C   0  0  0  0  0  0  0  0  0  0  0  0
   19.8810   36.2430   85.5100 N   0  0  0  0  0  4  0  0  0  0  0  0
   19.6340   37.2540   84.4340 C   0  0  0  0  0  0  0  0  0  0  0  0
   20.8560   38.1950   84.3570 C   0  0  0  0  0  0  0  0  0  0  0  0
   26.7290   39.4140   84.7100 C   0  0  0  0  0  0  0  0  0  0  0  0
   26.8730   40.5880   85.4440 C   0  0  0  0  0  0  0  0  0  0  0  0
   25.8460   41.2190   86.3090 C   0  0  0  0  0  0  0  0  0  0  0  0
   25.0490   42.3080   85.8140 C   0  0  0  0  0  0  0  0  0  0  0  0
   24.0740   42.9150   86.6700 C   0  0  0  0  0  0  0  0  0  0  0  0
   23.9040   42.4290   88.0200 C   0  0  0  0  0  0  0  0  0  0  0  0
   24.7010   41.3320   88.5200 C   0  0  0  0  0  0  0  0  0  0  0  0
   25.6760   40.7280   87.6620 C   0  0  0  0  0  0  0  0  0  0  0  0
   28.5420   43.5510   85.4520 C   0  0  0  0  0  0  0  0  0  0  0  0
   29.2820   44.6730   85.9140 C   0  0  0  0  0  0  0  0  0  0  0  0
   31.1378   45.3163   86.8941 H   0  0  0  0  0  0  0  0  0  0  0  0
   32.0463   42.9618   87.1937 H   0  0  0  0  0  0  0  0  0  0  0  0
   30.7169   40.9682   86.3534 H   0  0  0  0  0  0  0  0  0  0  0  0
   27.1710   36.2784   82.3526 H   0  0  0  0  0  0  0  0  0  0  0  0
   24.9831   36.5979   83.5609 H   0  0  0  0  0  0  0  0  0  0  0  0
   24.6810   39.2320   86.0200 H   0  0  0  0  0  0  0  0  0  0  0  0
   23.6557   40.2984   84.1436 H   0  0  0  0  0  0  0  0  0  0  0  0
   22.8321   38.6924   83.9009 H   0  0  0  0  0  0  0  0  0  0  0  0
   22.6866   39.7189   86.6539 H   0  0  0  0  0  0  0  0  0  0  0  0
   21.8639   40.7516   85.3725 H   0  0  0  0  0  0  0  0  0  0  0  0
   20.1960   39.3940   85.8450 H   0  0  0  0  0  0  0  0  0  0  0  0
   22.1952   37.3029   86.5037 H   0  0  0  0  0  0  0  0  0  0  0  0
   21.3975   38.3847   87.7033 H   0  0  0  0  0  0  0  0  0  0  0  0
   20.3136   36.1166   87.5918 H   0  0  0  0  0  0  0  0  0  0  0  0
   19.1868   37.4352   87.1348 H   0  0  0  0  0  0  0  0  0  0  0  0
   20.6990   35.7180   85.2740 H   0  0  0  0  0  0  0  0  0  0  0  0
   19.0880   35.6380   85.5700 H   0  0  0  0  0  0  0  0  0  0  0  0
   19.4973   36.7435   83.4693 H   0  0  0  0  0  0  0  0  0  0  0  0
   18.7263   37.8324   84.6610 H   0  0  0  0  0  0  0  0  0  0  0  0
   21.7574   37.6106   84.1203 H   0  0  0  0  0  0  0  0  0  0  0  0
   20.6973   38.9473   83.5704 H   0  0  0  0  0  0  0  0  0  0  0  0
   25.1868   42.6726   84.7854 H   0  0  0  0  0  0  0  0  0  0  0  0
   23.4572   43.7477   86.3011 H   0  0  0  0  0  0  0  0  0  0  0  0
   23.1577   42.9005   88.6763 H   0  0  0  0  0  0  0  0  0  0  0  0
   24.5605   40.9652   89.5475 H   0  0  0  0  0  0  0  0  0  0  0  0
   26.2934   39.8947   88.0286 H   0  0  0  0  0  0  0  0  0  0  0  0
   27.5665   43.7115   84.9696 H   0  0  0  0  0  0  0  0  0  0  0  0
   28.8852   45.6919   85.7940 H   0  0  0  0  0  0  0  0  0  0  0  0
  1  2  2  0
  2  3  1  0
  3  4  2  0
  4  5  1  0
  5  6  1  0
  6  7  1  0
  7  8  2  0
  8  9  1  0
  9 10  2  0
 10 11  1  0
 11 12  1  0
 12 13  1  0
 13 14  1  0
 14 15  1  0
 15 16  1  0
 16 17  1  0
 17 18  1  0
 18 19  1  0
 19 20  1  0
 11 21  2  0
 21 22  1  0
 22 23  1  0
 23 24  2  0
 24 25  1  0
 25 26  2  0
 26 27  1  0
 27 28  2  0
  4 29  1  0
 29 30  2  0
 30  1  1  0
 22  5  2  0
 28 23  1  0
 21  7  1  0
 20 15  1  0
  1 31  1  0
  2 32  1  0
  3 33  1  0
  9 34  1  0
 10 35  1  0
 12 36  1  0
 13 37  1  0
 13 38  1  0
 14 39  1  0
 14 40  1  0
 15 41  1  0
 16 42  1  0
 16 43  1  0
 17 44  1  0
 17 45  1  0
 18 46  1  0
 18 47  1  0
 19 48  1  0
 19 49  1  0
 20 50  1  0
 20 51  1  0
 24 52  1  0
 25 53  1  0
 26 54  1  0
 27 55  1  0
 28 56  1  0
 29 57  1  0
 30 58  1  0
M  CHG  2  15   1  18   1
M  END
>  <meeko>  (60) 
{"free_energy": -9.54, "intermolecular_energy": -8.038, "internal_energy": -1.695}

$$$$

     RDKit          3D

 58 62  0  0  0  0  0  0  0  0999 V2000
   32.2060   40.6220   84.7430 C   0  0  0  0  0  0  0  0  0  0  0  0
   31.7130   41.3670   85.8810 C   0  0  0  0  0  0  0  0  0  0  0  0
   30.3470   41.8100   85.9140 C   0  0  0  0  0  0  0  0  0  0  0  0
   29.4780   41.5160   84.8080 C   0  0  0  0  0  0  0  0  0  0  0  0
   28.0550   41.9810   84.8820 C   0  0  0  0  0  0  0  0  0  0  0  0
   27.7430   43.2920   85.1880 O   0  0  0  0  0  0  0  0  0  0  0  0
   26.3870   43.3620   85.1740 C   0  0  0  0  0  0  0  0  0  0  0  0
   25.6060   44.4820   85.4220 N   0  0  0  0  0  0  0  0  0  0  0  0
   24.2490   44.4470   85.3840 C   0  0  0  0  0  0  0  0  0  0  0  0
   23.5720   43.2440   85.0570 C   0  0  0  0  0  0  0  0  0  0  0  0
   24.3340   42.0500   84.7880 C   0  0  0  0  0  0  0  0  0  0  0  0
   23.7160   40.8590   84.4670 N   0  0  0  0  0  0  0  0  0  0  0  0
   22.3760   40.5110   84.9220 C   0  0  0  0  0  0  0  0  0  0  0  0
   22.3850   39.5160   86.0860 C   0  0  0  0  0  0  0  0  0  0  0  0
   21.8300   38.1750   85.7750 N   0  0  0  0  0  4  0  0  0  0  0  0
   21.1990   38.2960   84.4330 C   0  0  0  0  0  0  0  0  0  0  0  0
   20.5790   36.9500   84.0130 C   0  0  0  0  0  0  0  0  0  0  0  0
   19.5960   36.5210   85.0510 N   0  0  0  0  0  4  0  0  0  0  0  0
   20.2290   36.4020   86.4020 C   0  0  0  0  0  0  0  0  0  0  0  0
   20.8140   37.7780   86.7900 C   0  0  0  0  0  0  0  0  0  0  0  0
   25.7970   42.1180   84.8480 C   0  0  0  0  0  0  0  0  0  0  0  0
   26.7970   41.1700   84.6470 C   0  0  0  0  0  0  0  0  0  0  0  0
   26.6000   39.7410   84.2970 C   0  0  0  0  0  0  0  0  0  0  0  0
   26.8420   39.2820   82.9570 C   0  0  0  0  0  0  0  0  0  0  0  0
   26.6310   37.9030   82.6340 C   0  0  0  0  0  0  0  0  0  0  0  0
   26.1740   36.9900   83.6560 C   0  0  0  0  0  0  0  0  0  0  0  0
   25.9330   37.4470   85.0060 C   0  0  0  0  0  0  0  0  0  0  0  0
   26.1440   38.8270   85.3250 C   0  0  0  0  0  0  0  0  0  0  0  0
   29.9980   40.7710   83.6740 C   0  0  0  0  0  0  0  0  0  0  0  0
   31.3480   40.3270   83.6360 C   0  0  0  0  0  0  0  0  0  0  0  0
   33.2510   40.2788   84.7284 H   0  0  0  0  0  0  0  0  0  0  0  0
   32.3849   41.5944   86.7218 H   0  0  0  0  0  0  0  0  0  0  0  0
   29.9683   42.3711   86.7810 H   0  0  0  0  0  0  0  0  0  0  0  0
   23.6717   45.3562   85.6080 H   0  0  0  0  0  0  0  0  0  0  0  0
   22.4733   43.2223   85.0090 H   0  0  0  0  0  0  0  0  0  0  0  0
   24.3110   40.1470   84.8380 H   0  0  0  0  0  0  0  0  0  0  0  0
   21.8660   41.4293   85.2484 H   0  0  0  0  0  0  0  0  0  0  0  0
   21.8542   40.0319   84.0804 H   0  0  0  0  0  0  0  0  0  0  0  0
   23.4268   39.3855   86.4141 H   0  0  0  0  0  0  0  0  0  0  0  0
   21.7313   39.9451   86.8596 H   0  0  0  0  0  0  0  0  0  0  0  0
   22.5430   37.4750   85.7860 H   0  0  0  0  0  0  0  0  0  0  0  0
   20.4114   39.0631   84.4697 H   0  0  0  0  0  0  0  0  0  0  0  0
   21.9675   38.5814   83.6996 H   0  0  0  0  0  0  0  0  0  0  0  0
   20.0672   37.0657   83.0462 H   0  0  0  0  0  0  0  0  0  0  0  0
   21.3699   36.1917   83.9152 H   0  0  0  0  0  0  0  0  0  0  0  0
   18.8630   37.1990   85.0980 H   0  0  0  0  0  0  0  0  0  0  0  0
   19.2240   35.6290   84.7910 H   0  0  0  0  0  0  0  0  0  0  0  0
   19.4729   36.0982   87.1409 H   0  0  0  0  0  0  0  0  0  0  0  0
   21.0268   35.6451   86.3799 H   0  0  0  0  0  0  0  0  0  0  0  0
   20.0086   38.5267   86.8185 H   0  0  0  0  0  0  0  0  0  0  0  0
   21.2838   37.7163   87.7827 H   0  0  0  0  0  0  0  0  0  0  0  0
   27.1870   39.9852   82.1846 H   0  0  0  0  0  0  0  0  0  0  0  0
   26.8161   37.5404   81.6121 H   0  0  0  0  0  0  0  0  0  0  0  0
   26.0071   35.9325   83.4034 H   0  0  0  0  0  0  0  0  0  0  0  0
   25.5915   36.7430   85.7792 H   0  0  0  0  0  0  0  0  0  0  0  0
   25.9607   39.1919   86.3464 H   0  0  0  0  0  0  0  0  0  0  0  0
   29.3331   40.5458   82.8271 H   0  0  0  0  0  0  0  0  0  0  0  0
   31.7272   39.7655   82.7694 H   0  0  0  0  0  0  0  0  0  0  0  0
  1  2  2  0
  2  3  1  0
  3  4  2  0
  4  5  1  0
  5  6  1  0
  6  7  1  0
  7  8  2  0
  8  9  1  0
  9 10  2  0
 10 11  1  0
 11 12  1  0
 12 13  1  0
 13 14  1  0
 14 15  1  0
 15 16  1  0
 16 17  1  0
 17 18  1  0
 18 19  1  0
 19 20  1  0
 11 21  2  0
 21 22  1  0
 22 23  1  0
 23 24  2  0
 24 25  1  0
 25 26  2  0
 26 27  1  0
 27 28  2  0
  4 29  1  0
 29 30  2  0
 30  1  1  0
 22  5  2  0
 28 23  1  0
 21  7  1  0
 20 15  1  0
  1 31  1  0
  2 32  1  0
  3 33  1  0
  9 34  1  0
 10 35  1  0
 12 36  1  0
 13 37  1  0
 13 38  1  0
 14 39  1  0
 14 40  1  0
 15 41  1  0
 16 42  1  0
 16 43  1  0
 17 44  1  0
 17 45  1  0
 18 46  1  0
 18 47  1  0
 19 48  1  0
 19 49  1  0
 20 50  1  0
 20 51  1  0
 24 52  1  0
 25 53  1  0
 26 54  1  0
 27 55  1  0
 28 56  1  0
 29 57  1  0
 30 58  1  0
M  CHG  2  15   1  18   1
M  END
>  <meeko>  (61) 
{"free_energy": -9.515, "intermolecular_energy": -8.319, "internal_energy": -1.382}

$$$$

     RDKit          3D

 58 62  0  0  0  0  0  0  0  0999 V2000
   19.8960   40.8770   87.2490 C   0  0  0  0  0  0  0  0  0  0  0  0
   20.8480   41.5050   88.1390 C   0  0  0  0  0  0  0  0  0  0  0  0
   22.1560   41.8550   87.6610 C   0  0  0  0  0  0  0  0  0  0  0  0
   22.5160   41.5710   86.3000 C   0  0  0  0  0  0  0  0  0  0  0  0
   23.8840   41.9610   85.8310 C   0  0  0  0  0  0  0  0  0  0  0  0
   24.3040   43.2770   85.8580 O   0  0  0  0  0  0  0  0  0  0  0  0
   25.5690   43.2720   85.3660 C   0  0  0  0  0  0  0  0  0  0  0  0
   26.4070   44.3670   85.2000 N   0  0  0  0  0  0  0  0  0  0  0  0
   27.6620   44.2540   84.6970 C   0  0  0  0  0  0  0  0  0  0  0  0
   28.1800   42.9830   84.3380 C   0  0  0  0  0  0  0  0  0  0  0  0
   27.3540   41.8110   84.4910 C   0  0  0  0  0  0  0  0  0  0  0  0
   27.8180   40.5560   84.1540 N   0  0  0  0  0  0  0  0  0  0  0  0
   29.1570   40.3170   83.6310 C   0  0  0  0  0  0  0  0  0  0  0  0
   29.9640   39.3420   84.4940 C   0  0  0  0  0  0  0  0  0  0  0  0
   30.3410   38.0710   83.8260 N   0  0  0  0  0  4  0  0  0  0  0  0
   31.2060   38.4540   82.6780 C   0  0  0  0  0  0  0  0  0  0  0  0
   31.6500   37.1980   81.9050 C   0  0  0  0  0  0  0  0  0  0  0  0
   30.4400   36.4450   81.4600 N   0  0  0  0  0  4  0  0  0  0  0  0
   29.5670   36.0630   82.6150 C   0  0  0  0  0  0  0  0  0  0  0  0
   29.1290   37.3510   83.3430 C   0  0  0  0  0  0  0  0  0  0  0  0
   25.9990   41.9670   85.0280 C   0  0  0  0  0  0  0  0  0  0  0  0
   24.9760   41.0600   85.2910 C   0  0  0  0  0  0  0  0  0  0  0  0
   25.0190   39.5930   85.0680 C   0  0  0  0  0  0  0  0  0  0  0  0
   25.9520   38.7750   85.7930 C   0  0  0  0  0  0  0  0  0  0  0  0
   25.9900   37.3640   85.5520 C   0  0  0  0  0  0  0  0  0  0  0  0
   25.0930   36.7790   84.5830 C   0  0  0  0  0  0  0  0  0  0  0  0
   24.1500   37.5970   83.8540 C   0  0  0  0  0  0  0  0  0  0  0  0
   24.1170   39.0090   84.0970 C   0  0  0  0  0  0  0  0  0  0  0  0
   21.5440   40.9340   85.4270 C   0  0  0  0  0  0  0  0  0  0  0  0
   20.2450   40.5870   85.8910 C   0  0  0  0  0  0  0  0  0  0  0  0
   18.8929   40.6194   87.6197 H   0  0  0  0  0  0  0  0  0  0  0  0
   20.5697   41.7145   89.1824 H   0  0  0  0  0  0  0  0  0  0  0  0
   22.8791   42.3385   88.3343 H   0  0  0  0  0  0  0  0  0  0  0  0
   28.2817   45.1535   84.5667 H   0  0  0  0  0  0  0  0  0  0  0  0
   29.2038   42.8923   83.9460 H   0  0  0  0  0  0  0  0  0  0  0  0
   27.1970   40.2310   83.4410 H   0  0  0  0  0  0  0  0  0  0  0  0
   29.0693   39.8997   82.6170 H   0  0  0  0  0  0  0  0  0  0  0  0
   29.6899   41.2793   83.6305 H   0  0  0  0  0  0  0  0  0  0  0  0
   30.8885   39.8493   84.8071 H   0  0  0  0  0  0  0  0  0  0  0  0
   29.3101   39.0637   85.3336 H   0  0  0  0  0  0  0  0  0  0  0  0
   30.8140   37.4560   84.4560 H   0  0  0  0  0  0  0  0  0  0  0  0
   30.6428   39.1157   82.0035 H   0  0  0  0  0  0  0  0  0  0  0  0
   32.0969   38.9755   83.0579 H   0  0  0  0  0  0  0  0  0  0  0  0
   32.2420   37.4959   81.0270 H   0  0  0  0  0  0  0  0  0  0  0  0
   32.2647   36.5598   82.5567 H   0  0  0  0  0  0  0  0  0  0  0  0
   29.9140   37.0230   80.8380 H   0  0  0  0  0  0  0  0  0  0  0  0
   30.7350   35.6120   80.9910 H   0  0  0  0  0  0  0  0  0  0  0  0
   28.6809   35.5241   82.2483 H   0  0  0  0  0  0  0  0  0  0  0  0
   30.1194   35.4085   83.3053 H   0  0  0  0  0  0  0  0  0  0  0  0
   28.5696   37.9951   82.6486 H   0  0  0  0  0  0  0  0  0  0  0  0
   28.4841   37.0947   84.1965 H   0  0  0  0  0  0  0  0  0  0  0  0
   26.6324   39.2297   86.5281 H   0  0  0  0  0  0  0  0  0  0  0  0
   26.6993   36.7285   86.1025 H   0  0  0  0  0  0  0  0  0  0  0  0
   25.1278   35.6954   84.3970 H   0  0  0  0  0  0  0  0  0  0  0  0
   23.4666   37.1415   83.1222 H   0  0  0  0  0  0  0  0  0  0  0  0
   23.4090   39.6471   83.5479 H   0  0  0  0  0  0  0  0  0  0  0  0
   21.8190   40.7155   84.3846 H   0  0  0  0  0  0  0  0  0  0  0  0
   19.5210   40.1042   85.2181 H   0  0  0  0  0  0  0  0  0  0  0  0
  1  2  2  0
  2  3  1  0
  3  4  2  0
  4  5  1  0
  5  6  1  0
  6  7  1  0
  7  8  2  0
  8  9  1  0
  9 10  2  0
 10 11  1  0
 11 12  1  0
 12 13  1  0
 13 14  1  0
 14 15  1  0
 15 16  1  0
 16 17  1  0
 17 18  1  0
 18 19  1  0
 19 20  1  0
 11 21  2  0
 21 22  1  0
 22 23  1  0
 23 24  2  0
 24 25  1  0
 25 26  2  0
 26 27  1  0
 27 28  2  0
  4 29  1  0
 29 30  2  0
 30  1  1  0
 22  5  2  0
 28 23  1  0
 21  7  1  0
 20 15  1  0
  1 31  1  0
  2 32  1  0
  3 33  1  0
  9 34  1  0
 10 35  1  0
 12 36  1  0
 13 37  1  0
 13 38  1  0
 14 39  1  0
 14 40  1  0
 15 41  1  0
 16 42  1  0
 16 43  1  0
 17 44  1  0
 17 45  1  0
 18 46  1  0
 18 47  1  0
 19 48  1  0
 19 49  1  0
 20 50  1  0
 20 51  1  0
 24 52  1  0
 25 53  1  0
 26 54  1  0
 27 55  1  0
 28 56  1  0
 29 57  1  0
 30 58  1  0
M  CHG  2  15   1  18   1
M  END
>  <meeko>  (62) 
{"free_energy": -9.441, "intermolecular_energy": -8.488, "internal_energy": -1.113}

$$$$

     RDKit          3D

 58 62  0  0  0  0  0  0  0  0999 V2000
   30.9210   42.4340   86.8800 C   0  0  0  0  0  0  0  0  0  0  0  0
   30.5950   42.7230   88.2600 C   0  0  0  0  0  0  0  0  0  0  0  0
   29.2330   42.6460   88.7080 C   0  0  0  0  0  0  0  0  0  0  0  0
   28.1970   42.2910   87.7780 C   0  0  0  0  0  0  0  0  0  0  0  0
   26.7890   42.2080   88.2820 C   0  0  0  0  0  0  0  0  0  0  0  0
   26.3730   42.9410   89.3770 O   0  0  0  0  0  0  0  0  0  0  0  0
   25.0650   42.6260   89.5590 C   0  0  0  0  0  0  0  0  0  0  0  0
   24.2150   43.1180   90.5400 N   0  0  0  0  0  0  0  0  0  0  0  0
   22.9160   42.7370   90.6360 C   0  0  0  0  0  0  0  0  0  0  0  0
   22.3660   41.8220   89.7010 C   0  0  0  0  0  0  0  0  0  0  0  0
   23.2030   41.2800   88.6600 C   0  0  0  0  0  0  0  0  0  0  0  0
   22.7090   40.3880   87.7310 N   0  0  0  0  0  0  0  0  0  0  0  0
   21.2960   40.3000   87.3860 C   0  0  0  0  0  0  0  0  0  0  0  0
   21.0560   40.2620   85.8740 C   0  0  0  0  0  0  0  0  0  0  0  0
   20.5920   38.9570   85.3410 N   0  0  0  0  0  4  0  0  0  0  0  0
   20.0790   38.1970   86.5130 C   0  0  0  0  0  0  0  0  0  0  0  0
   19.5750   36.8110   86.0680 C   0  0  0  0  0  0  0  0  0  0  0  0
   20.6830   36.0860   85.3800 N   0  0  0  0  0  4  0  0  0  0  0  0
   21.2030   36.8520   84.2030 C   0  0  0  0  0  0  0  0  0  0  0  0
   21.7170   38.2210   84.6990 C   0  0  0  0  0  0  0  0  0  0  0  0
   24.6050   41.7040   88.5890 C   0  0  0  0  0  0  0  0  0  0  0  0
   25.6490   41.3760   87.7290 C   0  0  0  0  0  0  0  0  0  0  0  0
   25.5850   40.4370   86.5820 C   0  0  0  0  0  0  0  0  0  0  0  0
   26.0550   39.0860   86.7220 C   0  0  0  0  0  0  0  0  0  0  0  0
   26.0000   38.1990   85.5990 C   0  0  0  0  0  0  0  0  0  0  0  0
   25.4760   38.6710   84.3380 C   0  0  0  0  0  0  0  0  0  0  0  0
   25.0000   40.0280   84.1940 C   0  0  0  0  0  0  0  0  0  0  0  0
   25.0570   40.9130   85.3190 C   0  0  0  0  0  0  0  0  0  0  0  0
   28.5500   42.0110   86.3960 C   0  0  0  0  0  0  0  0  0  0  0  0
   29.8960   42.0820   85.9450 C   0  0  0  0  0  0  0  0  0  0  0  0
   31.9678   42.4854   86.5460 H   0  0  0  0  0  0  0  0  0  0  0  0
   31.3910   43.0018   88.9661 H   0  0  0  0  0  0  0  0  0  0  0  0
   28.9839   42.8578   89.7583 H   0  0  0  0  0  0  0  0  0  0  0  0
   22.2860   43.1396   91.4429 H   0  0  0  0  0  0  0  0  0  0  0  0
   21.3082   41.5284   89.7701 H   0  0  0  0  0  0  0  0  0  0  0  0
   22.9480   39.4840   88.0840 H   0  0  0  0  0  0  0  0  0  0  0  0
   20.8820   39.3831   87.8308 H   0  0  0  0  0  0  0  0  0  0  0  0
   20.8026   41.2019   87.7773 H   0  0  0  0  0  0  0  0  0  0  0  0
   20.2956   41.0188   85.6309 H   0  0  0  0  0  0  0  0  0  0  0  0
   22.0322   40.4539   85.4048 H   0  0  0  0  0  0  0  0  0  0  0  0
   19.8880   39.0790   84.6420 H   0  0  0  0  0  0  0  0  0  0  0  0
   20.8884   38.0710   87.2471 H   0  0  0  0  0  0  0  0  0  0  0  0
   19.2455   38.7541   86.9656 H   0  0  0  0  0  0  0  0  0  0  0  0
   19.2502   36.2371   86.9484 H   0  0  0  0  0  0  0  0  0  0  0  0
   18.7257   36.9293   85.3790 H   0  0  0  0  0  0  0  0  0  0  0  0
   21.4310   35.9510   86.0300 H   0  0  0  0  0  0  0  0  0  0  0  0
   20.3400   35.2030   85.0610 H   0  0  0  0  0  0  0  0  0  0  0  0
   22.0262   36.2949   83.7318 H   0  0  0  0  0  0  0  0  0  0  0  0
   20.4023   36.9953   83.4625 H   0  0  0  0  0  0  0  0  0  0  0  0
   22.5239   38.0690   85.4310 H   0  0  0  0  0  0  0  0  0  0  0  0
   22.1053   38.8024   83.8498 H   0  0  0  0  0  0  0  0  0  0  0  0
   26.4543   38.7357   87.6853 H   0  0  0  0  0  0  0  0  0  0  0  0
   26.3553   37.1625   85.6961 H   0  0  0  0  0  0  0  0  0  0  0  0
   25.4389   37.9885   83.4761 H   0  0  0  0  0  0  0  0  0  0  0  0
   24.5984   40.3773   83.2313 H   0  0  0  0  0  0  0  0  0  0  0  0
   24.7015   41.9497   85.2247 H   0  0  0  0  0  0  0  0  0  0  0  0
   27.7578   41.7381   85.6833 H   0  0  0  0  0  0  0  0  0  0  0  0
   30.1458   41.8700   84.8949 H   0  0  0  0  0  0  0  0  0  0  0  0
  1  2  2  0
  2  3  1  0
  3  4  2  0
  4  5  1  0
  5  6  1  0
  6  7  1  0
  7  8  2  0
  8  9  1  0
  9 10  2  0
 10 11  1  0
 11 12  1  0
 12 13  1  0
 13 14  1  0
 14 15  1  0
 15 16  1  0
 16 17  1  0
 17 18  1  0
 18 19  1  0
 19 20  1  0
 11 21  2  0
 21 22  1  0
 22 23  1  0
 23 24  2  0
 24 25  1  0
 25 26  2  0
 26 27  1  0
 27 28  2  0
  4 29  1  0
 29 30  2  0
 30  1  1  0
 22  5  2  0
 28 23  1  0
 21  7  1  0
 20 15  1  0
  1 31  1  0
  2 32  1  0
  3 33  1  0
  9 34  1  0
 10 35  1  0
 12 36  1  0
 13 37  1  0
 13 38  1  0
 14 39  1  0
 14 40  1  0
 15 41  1  0
 16 42  1  0
 16 43  1  0
 17 44  1  0
 17 45  1  0
 18 46  1  0
 18 47  1  0
 19 48  1  0
 19 49  1  0
 20 50  1  0
 20 51  1  0
 24 52  1  0
 25 53  1  0
 26 54  1  0
 27 55  1  0
 28 56  1  0
 29 57  1  0
 30 58  1  0
M  CHG  2  15   1  18   1
M  END
>  <meeko>  (63) 
{"free_energy": -9.437, "intermolecular_energy": -8.066, "internal_energy": -1.529}

$$$$

     RDKit          3D

 58 62  0  0  0  0  0  0  0  0999 V2000
   29.8870   43.9610   89.0190 C   0  0  0  0  0  0  0  0  0  0  0  0
   29.0880   43.3940   90.0840 C   0  0  0  0  0  0  0  0  0  0  0  0
   27.8360   42.7570   89.7820 C   0  0  0  0  0  0  0  0  0  0  0  0
   27.3800   42.6940   88.4220 C   0  0  0  0  0  0  0  0  0  0  0  0
   26.0760   42.0100   88.1420 C   0  0  0  0  0  0  0  0  0  0  0  0
   24.9870   42.1730   88.9750 O   0  0  0  0  0  0  0  0  0  0  0  0
   23.9930   41.4210   88.4360 C   0  0  0  0  0  0  0  0  0  0  0  0
   22.7020   41.2680   88.9220 N   0  0  0  0  0  0  0  0  0  0  0  0
   21.7780   40.4880   88.3050 C   0  0  0  0  0  0  0  0  0  0  0  0
   22.1020   39.8070   87.1040 C   0  0  0  0  0  0  0  0  0  0  0  0
   23.4290   39.9310   86.5520 C   0  0  0  0  0  0  0  0  0  0  0  0
   23.7850   39.2860   85.3860 N   0  0  0  0  0  0  0  0  0  0  0  0
   24.0830   37.8610   85.3240 C   0  0  0  0  0  0  0  0  0  0  0  0
   23.2960   37.1390   84.2270 C   0  0  0  0  0  0  0  0  0  0  0  0
   22.0000   36.5570   84.6590 N   0  0  0  0  0  4  0  0  0  0  0  0
   20.9610   37.5570   84.2910 C   0  0  0  0  0  0  0  0  0  0  0  0
   19.5670   37.0520   84.7050 C   0  0  0  0  0  0  0  0  0  0  0  0
   19.5670   36.7650   86.1710 N   0  0  0  0  0  4  0  0  0  0  0  0
   20.6140   35.7620   86.5420 C   0  0  0  0  0  0  0  0  0  0  0  0
   21.9930   36.3200   86.1300 C   0  0  0  0  0  0  0  0  0  0  0  0
   24.4070   40.7730   87.2480 C   0  0  0  0  0  0  0  0  0  0  0  0
   25.7350   41.0930   86.9840 C   0  0  0  0  0  0  0  0  0  0  0  0
   26.5480   40.6130   85.8390 C   0  0  0  0  0  0  0  0  0  0  0  0
   26.4820   41.2850   84.5700 C   0  0  0  0  0  0  0  0  0  0  0  0
   27.2610   40.7970   83.4720 C   0  0  0  0  0  0  0  0  0  0  0  0
   28.1010   39.6350   83.6490 C   0  0  0  0  0  0  0  0  0  0  0  0
   28.1720   38.9590   84.9250 C   0  0  0  0  0  0  0  0  0  0  0  0
   27.3910   39.4490   86.0210 C   0  0  0  0  0  0  0  0  0  0  0  0
   28.1980   43.2760   87.3710 C   0  0  0  0  0  0  0  0  0  0  0  0
   29.4390   43.9060   87.6610 C   0  0  0  0  0  0  0  0  0  0  0  0
   30.8488   44.4393   89.2558 H   0  0  0  0  0  0  0  0  0  0  0  0
   29.4392   43.4507   91.1249 H   0  0  0  0  0  0  0  0  0  0  0  0
   27.2297   42.3197   90.5889 H   0  0  0  0  0  0  0  0  0  0  0  0
   20.7726   40.3836   88.7389 H   0  0  0  0  0  0  0  0  0  0  0  0
   21.3467   39.1886   86.5969 H   0  0  0  0  0  0  0  0  0  0  0  0
   24.6210   39.7420   85.0810 H   0  0  0  0  0  0  0  0  0  0  0  0
   25.1578   37.7347   85.1270 H   0  0  0  0  0  0  0  0  0  0  0  0
   23.7909   37.4186   86.2878 H   0  0  0  0  0  0  0  0  0  0  0  0
   23.0937   37.8607   83.4219 H   0  0  0  0  0  0  0  0  0  0  0  0
   23.9212   36.2914   83.9096 H   0  0  0  0  0  0  0  0  0  0  0  0
   21.8340   35.6740   84.2200 H   0  0  0  0  0  0  0  0  0  0  0  0
   21.1714   38.5059   84.8060 H   0  0  0  0  0  0  0  0  0  0  0  0
   20.9789   37.7089   83.2017 H   0  0  0  0  0  0  0  0  0  0  0  0
   18.8144   37.8222   84.4804 H   0  0  0  0  0  0  0  0  0  0  0  0
   19.3242   36.1352   84.1477 H   0  0  0  0  0  0  0  0  0  0  0  0
   19.7490   37.6160   86.6640 H   0  0  0  0  0  0  0  0  0  0  0  0
   18.6700   36.4030   86.4270 H   0  0  0  0  0  0  0  0  0  0  0  0
   20.5933   35.5881   87.6280 H   0  0  0  0  0  0  0  0  0  0  0  0
   20.4232   34.8091   86.0266 H   0  0  0  0  0  0  0  0  0  0  0  0
   22.1802   37.2671   86.6571 H   0  0  0  0  0  0  0  0  0  0  0  0
   22.7801   35.5985   86.3942 H   0  0  0  0  0  0  0  0  0  0  0  0
   25.8378   42.1676   84.4433 H   0  0  0  0  0  0  0  0  0  0  0  0
   27.2200   41.3051   82.4972 H   0  0  0  0  0  0  0  0  0  0  0  0
   28.6942   39.2598   82.8020 H   0  0  0  0  0  0  0  0  0  0  0  0
   28.8186   38.0783   85.0526 H   0  0  0  0  0  0  0  0  0  0  0  0
   27.4311   38.9435   86.9971 H   0  0  0  0  0  0  0  0  0  0  0  0
   27.8494   43.2280   86.3288 H   0  0  0  0  0  0  0  0  0  0  0  0
   30.0452   44.3442   86.8544 H   0  0  0  0  0  0  0  0  0  0  0  0
  1  2  2  0
  2  3  1  0
  3  4  2  0
  4  5  1  0
  5  6  1  0
  6  7  1  0
  7  8  2  0
  8  9  1  0
  9 10  2  0
 10 11  1  0
 11 12  1  0
 12 13  1  0
 13 14  1  0
 14 15  1  0
 15 16  1  0
 16 17  1  0
 17 18  1  0
 18 19  1  0
 19 20  1  0
 11 21  2  0
 21 22  1  0
 22 23  1  0
 23 24  2  0
 24 25  1  0
 25 26  2  0
 26 27  1  0
 27 28  2  0
  4 29  1  0
 29 30  2  0
 30  1  1  0
 22  5  2  0
 28 23  1  0
 21  7  1  0
 20 15  1  0
  1 31  1  0
  2 32  1  0
  3 33  1  0
  9 34  1  0
 10 35  1  0
 12 36  1  0
 13 37  1  0
 13 38  1  0
 14 39  1  0
 14 40  1  0
 15 41  1  0
 16 42  1  0
 16 43  1  0
 17 44  1  0
 17 45  1  0
 18 46  1  0
 18 47  1  0
 19 48  1  0
 19 49  1  0
 20 50  1  0
 20 51  1  0
 24 52  1  0
 25 53  1  0
 26 54  1  0
 27 55  1  0
 28 56  1  0
 29 57  1  0
 30 58  1  0
M  CHG  2  15   1  18   1
M  END
>  <meeko>  (64) 
{"free_energy": -9.433, "intermolecular_energy": -7.927, "internal_energy": -1.662}

$$$$

     RDKit          3D

 58 62  0  0  0  0  0  0  0  0999 V2000
   24.3140   35.6720   82.8390 C   0  0  0  0  0  0  0  0  0  0  0  0
   24.2420   36.2720   84.1540 C   0  0  0  0  0  0  0  0  0  0  0  0
   25.2510   37.2040   84.5750 C   0  0  0  0  0  0  0  0  0  0  0  0
   26.3330   37.5300   83.6880 C   0  0  0  0  0  0  0  0  0  0  0  0
   27.3600   38.5160   84.1540 C   0  0  0  0  0  0  0  0  0  0  0  0
   28.7110   38.2580   84.0310 O   0  0  0  0  0  0  0  0  0  0  0  0
   29.3440   39.3410   84.5500 C   0  0  0  0  0  0  0  0  0  0  0  0
   30.7130   39.5440   84.6460 N   0  0  0  0  0  0  0  0  0  0  0  0
   31.2480   40.6690   85.1850 C   0  0  0  0  0  0  0  0  0  0  0  0
   30.4050   41.7090   85.6560 C   0  0  0  0  0  0  0  0  0  0  0  0
   28.9740   41.5520   85.5800 C   0  0  0  0  0  0  0  0  0  0  0  0
   28.1190   42.5380   86.0270 N   0  0  0  0  0  0  0  0  0  0  0  0
   28.4710   43.9520   86.0400 C   0  0  0  0  0  0  0  0  0  0  0  0
   29.3980   44.3210   87.2020 C   0  0  0  0  0  0  0  0  0  0  0  0
   28.7340   44.4500   88.5230 N   0  0  0  0  0  4  0  0  0  0  0  0
   29.0030   43.1740   89.2400 C   0  0  0  0  0  0  0  0  0  0  0  0
   28.3450   43.1990   90.6330 C   0  0  0  0  0  0  0  0  0  0  0  0
   26.8820   43.4490   90.4780 N   0  0  0  0  0  4  0  0  0  0  0  0
   26.6110   44.7310   89.7530 C   0  0  0  0  0  0  0  0  0  0  0  0
   27.2670   44.6510   88.3570 C   0  0  0  0  0  0  0  0  0  0  0  0
   28.4280   40.3210   85.0020 C   0  0  0  0  0  0  0  0  0  0  0  0
   27.1270   39.8720   84.7900 C   0  0  0  0  0  0  0  0  0  0  0  0
   25.8770   40.5960   85.1310 C   0  0  0  0  0  0  0  0  0  0  0  0
   25.2850   41.5070   84.1900 C   0  0  0  0  0  0  0  0  0  0  0  0
   24.0880   42.2080   84.5440 C   0  0  0  0  0  0  0  0  0  0  0  0
   23.4900   41.9960   85.8420 C   0  0  0  0  0  0  0  0  0  0  0  0
   24.0810   41.0790   86.7900 C   0  0  0  0  0  0  0  0  0  0  0  0
   25.2790   40.3800   86.4330 C   0  0  0  0  0  0  0  0  0  0  0  0
   26.3850   36.9090   82.3740 C   0  0  0  0  0  0  0  0  0  0  0  0
   25.3890   35.9880   81.9490 C   0  0  0  0  0  0  0  0  0  0  0  0
   23.5337   34.9652   82.5201 H   0  0  0  0  0  0  0  0  0  0  0  0
   23.4145   36.0144   84.8314 H   0  0  0  0  0  0  0  0  0  0  0  0
   25.1953   37.6658   85.5718 H   0  0  0  0  0  0  0  0  0  0  0  0
   32.3405   40.7752   85.2571 H   0  0  0  0  0  0  0  0  0  0  0  0
   30.8402   42.6279   86.0758 H   0  0  0  0  0  0  0  0  0  0  0  0
   27.9300   42.3070   86.9820 H   0  0  0  0  0  0  0  0  0  0  0  0
   28.9773   44.1971   85.0947 H   0  0  0  0  0  0  0  0  0  0  0  0
   27.5399   44.5245   86.1638 H   0  0  0  0  0  0  0  0  0  0  0  0
   30.1690   43.5407   87.2833 H   0  0  0  0  0  0  0  0  0  0  0  0
   29.8033   45.3159   86.9654 H   0  0  0  0  0  0  0  0  0  0  0  0
   29.0820   45.2390   89.0290 H   0  0  0  0  0  0  0  0  0  0  0  0
   28.5910   42.3362   88.6583 H   0  0  0  0  0  0  0  0  0  0  0  0
   30.0896   43.0501   89.3579 H   0  0  0  0  0  0  0  0  0  0  0  0
   28.5024   42.2315   91.1321 H   0  0  0  0  0  0  0  0  0  0  0  0
   28.7949   43.9978   91.2409 H   0  0  0  0  0  0  0  0  0  0  0  0
   26.4810   42.6960   89.9580 H   0  0  0  0  0  0  0  0  0  0  0  0
   26.4670   43.5010   91.3860 H   0  0  0  0  0  0  0  0  0  0  0  0
   25.5257   44.8746   89.6456 H   0  0  0  0  0  0  0  0  0  0  0  0
   27.0265   45.5789   90.3173 H   0  0  0  0  0  0  0  0  0  0  0  0
   26.8399   43.8065   87.7963 H   0  0  0  0  0  0  0  0  0  0  0  0
   27.0791   45.5828   87.8034 H   0  0  0  0  0  0  0  0  0  0  0  0
   25.7484   41.6645   83.2049 H   0  0  0  0  0  0  0  0  0  0  0  0
   23.6252   42.9055   83.8303 H   0  0  0  0  0  0  0  0  0  0  0  0
   22.5728   42.5397   86.1123 H   0  0  0  0  0  0  0  0  0  0  0  0
   23.6161   40.9198   87.7742 H   0  0  0  0  0  0  0  0  0  0  0  0
   25.7435   39.6816   87.1447 H   0  0  0  0  0  0  0  0  0  0  0  0
   27.2132   37.1574   81.6940 H   0  0  0  0  0  0  0  0  0  0  0  0
   25.4438   35.5258   80.9523 H   0  0  0  0  0  0  0  0  0  0  0  0
  1  2  2  0
  2  3  1  0
  3  4  2  0
  4  5  1  0
  5  6  1  0
  6  7  1  0
  7  8  2  0
  8  9  1  0
  9 10  2  0
 10 11  1  0
 11 12  1  0
 12 13  1  0
 13 14  1  0
 14 15  1  0
 15 16  1  0
 16 17  1  0
 17 18  1  0
 18 19  1  0
 19 20  1  0
 11 21  2  0
 21 22  1  0
 22 23  1  0
 23 24  2  0
 24 25  1  0
 25 26  2  0
 26 27  1  0
 27 28  2  0
  4 29  1  0
 29 30  2  0
 30  1  1  0
 22  5  2  0
 28 23  1  0
 21  7  1  0
 20 15  1  0
  1 31  1  0
  2 32  1  0
  3 33  1  0
  9 34  1  0
 10 35  1  0
 12 36  1  0
 13 37  1  0
 13 38  1  0
 14 39  1  0
 14 40  1  0
 15 41  1  0
 16 42  1  0
 16 43  1  0
 17 44  1  0
 17 45  1  0
 18 46  1  0
 18 47  1  0
 19 48  1  0
 19 49  1  0
 20 50  1  0
 20 51  1  0
 24 52  1  0
 25 53  1  0
 26 54  1  0
 27 55  1  0
 28 56  1  0
 29 57  1  0
 30 58  1  0
M  CHG  2  15   1  18   1
M  END
>  <meeko>  (65) 
{"free_energy": -9.392, "intermolecular_energy": -8.507, "internal_energy": -1.027}

$$$$

     RDKit          3D

 58 62  0  0  0  0  0  0  0  0999 V2000
   29.2880   44.9980   86.5180 C   0  0  0  0  0  0  0  0  0  0  0  0
   28.5410   44.2560   87.5100 C   0  0  0  0  0  0  0  0  0  0  0  0
   27.3280   43.5810   87.1410 C   0  0  0  0  0  0  0  0  0  0  0  0
   26.8580   43.6540   85.7850 C   0  0  0  0  0  0  0  0  0  0  0  0
   25.5960   42.9280   85.4320 C   0  0  0  0  0  0  0  0  0  0  0  0
   24.3710   43.5650   85.4480 O   0  0  0  0  0  0  0  0  0  0  0  0
   23.4600   42.6260   85.0880 C   0  0  0  0  0  0  0  0  0  0  0  0
   22.0880   42.7970   84.9610 N   0  0  0  0  0  0  0  0  0  0  0  0
   21.2590   41.7870   84.5930 C   0  0  0  0  0  0  0  0  0  0  0  0
   21.7820   40.5020   84.2960 C   0  0  0  0  0  0  0  0  0  0  0  0
   23.2000   40.2690   84.4090 C   0  0  0  0  0  0  0  0  0  0  0  0
   23.7490   39.0340   84.1300 N   0  0  0  0  0  0  0  0  0  0  0  0
   23.7700   37.9370   85.0890 C   0  0  0  0  0  0  0  0  0  0  0  0
   23.2850   36.6150   84.4860 C   0  0  0  0  0  0  0  0  0  0  0  0
   21.9520   36.1590   84.9550 N   0  0  0  0  0  4  0  0  0  0  0  0
   21.0000   37.2430   84.5920 C   0  0  0  0  0  0  0  0  0  0  0  0
   19.5750   36.8720   85.0440 C   0  0  0  0  0  0  0  0  0  0  0  0
   19.5820   36.6090   86.5140 N   0  0  0  0  0  4  0  0  0  0  0  0
   20.5430   35.5210   86.8800 C   0  0  0  0  0  0  0  0  0  0  0  0
   21.9570   35.9470   86.4300 C   0  0  0  0  0  0  0  0  0  0  0  0
   24.0680   41.3770   84.8190 C   0  0  0  0  0  0  0  0  0  0  0  0
   25.4410   41.4770   85.0190 C   0  0  0  0  0  0  0  0  0  0  0  0
   26.4390   40.3910   84.8520 C   0  0  0  0  0  0  0  0  0  0  0  0
   26.8190   39.5760   85.9730 C   0  0  0  0  0  0  0  0  0  0  0  0
   27.7960   38.5430   85.7970 C   0  0  0  0  0  0  0  0  0  0  0  0
   28.3900   38.3340   84.4960 C   0  0  0  0  0  0  0  0  0  0  0  0
   28.0070   39.1500   83.3660 C   0  0  0  0  0  0  0  0  0  0  0  0
   27.0310   40.1820   83.5470 C   0  0  0  0  0  0  0  0  0  0  0  0
   27.6240   44.4110   84.8080 C   0  0  0  0  0  0  0  0  0  0  0  0
   28.8270   45.0780   85.1650 C   0  0  0  0  0  0  0  0  0  0  0  0
   30.2200   45.5061   86.8063 H   0  0  0  0  0  0  0  0  0  0  0  0
   28.9023   44.2087   88.5479 H   0  0  0  0  0  0  0  0  0  0  0  0
   26.7618   43.0112   87.8925 H   0  0  0  0  0  0  0  0  0  0  0  0
   20.1758   41.9658   84.5247 H   0  0  0  0  0  0  0  0  0  0  0  0
   21.1103   39.6895   83.9818 H   0  0  0  0  0  0  0  0  0  0  0  0
   24.7100   39.2170   83.9210 H   0  0  0  0  0  0  0  0  0  0  0  0
   24.8012   37.8028   85.4476 H   0  0  0  0  0  0  0  0  0  0  0  0
   23.0850   38.1993   85.9087 H   0  0  0  0  0  0  0  0  0  0  0  0
   23.2387   36.7356   83.3936 H   0  0  0  0  0  0  0  0  0  0  0  0
   24.0029   35.8483   84.8127 H   0  0  0  0  0  0  0  0  0  0  0  0
   21.6980   35.2880   84.5360 H   0  0  0  0  0  0  0  0  0  0  0  0
   21.3066   38.1766   85.0863 H   0  0  0  0  0  0  0  0  0  0  0  0
   21.0072   37.3766   83.5002 H   0  0  0  0  0  0  0  0  0  0  0  0
   18.8898   37.7033   84.8217 H   0  0  0  0  0  0  0  0  0  0  0  0
   19.2385   35.9723   84.5080 H   0  0  0  0  0  0  0  0  0  0  0  0
   19.8510   37.4470   86.9880 H   0  0  0  0  0  0  0  0  0  0  0  0
   18.6630   36.3330   86.7950 H   0  0  0  0  0  0  0  0  0  0  0  0
   20.5309   35.3656   87.9689 H   0  0  0  0  0  0  0  0  0  0  0  0
   20.2562   34.5815   86.3849 H   0  0  0  0  0  0  0  0  0  0  0  0
   22.2394   36.8819   86.9362 H   0  0  0  0  0  0  0  0  0  0  0  0
   22.6827   35.1626   86.6908 H   0  0  0  0  0  0  0  0  0  0  0  0
   26.3627   39.7442   86.9597 H   0  0  0  0  0  0  0  0  0  0  0  0
   28.0926   37.9120   86.6478 H   0  0  0  0  0  0  0  0  0  0  0  0
   29.1435   37.5435   84.3641 H   0  0  0  0  0  0  0  0  0  0  0  0
   28.4602   38.9801   82.3782 H   0  0  0  0  0  0  0  0  0  0  0  0
   26.7319   40.8139   82.6977 H   0  0  0  0  0  0  0  0  0  0  0  0
   27.2645   44.4686   83.7700 H   0  0  0  0  0  0  0  0  0  0  0  0
   29.3948   45.6466   84.4138 H   0  0  0  0  0  0  0  0  0  0  0  0
  1  2  2  0
  2  3  1  0
  3  4  2  0
  4  5  1  0
  5  6  1  0
  6  7  1  0
  7  8  2  0
  8  9  1  0
  9 10  2  0
 10 11  1  0
 11 12  1  0
 12 13  1  0
 13 14  1  0
 14 15  1  0
 15 16  1  0
 16 17  1  0
 17 18  1  0
 18 19  1  0
 19 20  1  0
 11 21  2  0
 21 22  1  0
 22 23  1  0
 23 24  2  0
 24 25  1  0
 25 26  2  0
 26 27  1  0
 27 28  2  0
  4 29  1  0
 29 30  2  0
 30  1  1  0
 22  5  2  0
 28 23  1  0
 21  7  1  0
 20 15  1  0
  1 31  1  0
  2 32  1  0
  3 33  1  0
  9 34  1  0
 10 35  1  0
 12 36  1  0
 13 37  1  0
 13 38  1  0
 14 39  1  0
 14 40  1  0
 15 41  1  0
 16 42  1  0
 16 43  1  0
 17 44  1  0
 17 45  1  0
 18 46  1  0
 18 47  1  0
 19 48  1  0
 19 49  1  0
 20 50  1  0
 20 51  1  0
 24 52  1  0
 25 53  1  0
 26 54  1  0
 27 55  1  0
 28 56  1  0
 29 57  1  0
 30 58  1  0
M  CHG  2  15   1  18   1
M  END
>  <meeko>  (66) 
{"free_energy": -9.39, "intermolecular_energy": -8.211, "internal_energy": -1.322}

$$$$

     RDKit          3D

 58 62  0  0  0  0  0  0  0  0999 V2000
   30.9400   42.7500   87.0150 C   0  0  0  0  0  0  0  0  0  0  0  0
   29.8610   42.5550   86.0720 C   0  0  0  0  0  0  0  0  0  0  0  0
   28.5100   42.4210   86.5420 C   0  0  0  0  0  0  0  0  0  0  0  0
   28.2400   42.4730   87.9520 C   0  0  0  0  0  0  0  0  0  0  0  0
   26.8180   42.3430   88.4060 C   0  0  0  0  0  0  0  0  0  0  0  0
   26.3470   43.0440   89.4990 O   0  0  0  0  0  0  0  0  0  0  0  0
   25.0420   42.6920   89.6310 C   0  0  0  0  0  0  0  0  0  0  0  0
   24.1470   43.1420   90.5910 N   0  0  0  0  0  0  0  0  0  0  0  0
   22.8550   42.7250   90.6360 C   0  0  0  0  0  0  0  0  0  0  0  0
   22.3610   41.8150   89.6660 C   0  0  0  0  0  0  0  0  0  0  0  0
   23.2470   41.3170   88.6430 C   0  0  0  0  0  0  0  0  0  0  0  0
   22.8080   40.4310   87.6820 N   0  0  0  0  0  0  0  0  0  0  0  0
   21.4430   39.9220   87.6320 C   0  0  0  0  0  0  0  0  0  0  0  0
   20.6850   40.3810   86.3840 C   0  0  0  0  0  0  0  0  0  0  0  0
   20.0340   39.2960   85.6060 N   0  0  0  0  0  4  0  0  0  0  0  0
   20.2050   38.0580   86.4130 C   0  0  0  0  0  0  0  0  0  0  0  0
   19.5670   36.8590   85.6870 C   0  0  0  0  0  0  0  0  0  0  0  0
   20.1780   36.7260   84.3310 N   0  0  0  0  0  4  0  0  0  0  0  0
   20.0100   37.9740   83.5210 C   0  0  0  0  0  0  0  0  0  0  0  0
   20.6840   39.1410   84.2740 C   0  0  0  0  0  0  0  0  0  0  0  0
   24.6390   41.7770   88.6280 C   0  0  0  0  0  0  0  0  0  0  0  0
   25.7190   41.4940   87.7980 C   0  0  0  0  0  0  0  0  0  0  0  0
   25.7190   40.5760   86.6320 C   0  0  0  0  0  0  0  0  0  0  0  0
   25.1840   41.0070   85.3690 C   0  0  0  0  0  0  0  0  0  0  0  0
   25.1770   40.1010   84.2600 C   0  0  0  0  0  0  0  0  0  0  0  0
   25.7050   38.7660   84.4220 C   0  0  0  0  0  0  0  0  0  0  0  0
   26.2470   38.3300   85.6890 C   0  0  0  0  0  0  0  0  0  0  0  0
   26.2500   39.2380   86.7970 C   0  0  0  0  0  0  0  0  0  0  0  0
   29.3420   42.6640   88.8800 C   0  0  0  0  0  0  0  0  0  0  0  0
   30.6810   42.8000   88.4220 C   0  0  0  0  0  0  0  0  0  0  0  0
   31.9707   42.8611   86.6472 H   0  0  0  0  0  0  0  0  0  0  0  0
   30.0749   42.5092   84.9940 H   0  0  0  0  0  0  0  0  0  0  0  0
   27.6869   42.2794   85.8262 H   0  0  0  0  0  0  0  0  0  0  0  0
   22.1881   43.0948   91.4288 H   0  0  0  0  0  0  0  0  0  0  0  0
   21.3099   41.4917   89.6941 H   0  0  0  0  0  0  0  0  0  0  0  0
   23.3850   39.6210   87.7890 H   0  0  0  0  0  0  0  0  0  0  0  0
   21.4773   38.8226   87.6380 H   0  0  0  0  0  0  0  0  0  0  0  0
   20.9092   40.3180   88.5085 H   0  0  0  0  0  0  0  0  0  0  0  0
   19.9044   41.0884   86.7007 H   0  0  0  0  0  0  0  0  0  0  0  0
   21.4369   40.8271   85.7164 H   0  0  0  0  0  0  0  0  0  0  0  0
   19.0690   39.4980   85.4380 H   0  0  0  0  0  0  0  0  0  0  0  0
   21.2779   37.8651   86.5599 H   0  0  0  0  0  0  0  0  0  0  0  0
   19.7114   38.1927   87.3868 H   0  0  0  0  0  0  0  0  0  0  0  0
   19.7482   35.9403   86.2641 H   0  0  0  0  0  0  0  0  0  0  0  0
   18.4830   37.0189   85.5904 H   0  0  0  0  0  0  0  0  0  0  0  0
   21.1550   36.5420   84.4370 H   0  0  0  0  0  0  0  0  0  0  0  0
   19.7340   35.9700   83.8510 H   0  0  0  0  0  0  0  0  0  0  0  0
   20.4841   37.8443   82.5369 H   0  0  0  0  0  0  0  0  0  0  0  0
   18.9409   38.1873   83.3746 H   0  0  0  0  0  0  0  0  0  0  0  0
   21.7541   38.9246   84.4084 H   0  0  0  0  0  0  0  0  0  0  0  0
   20.5744   40.0702   83.6956 H   0  0  0  0  0  0  0  0  0  0  0  0
   24.7831   42.0250   85.2554 H   0  0  0  0  0  0  0  0  0  0  0  0
   24.7712   40.4203   83.2887 H   0  0  0  0  0  0  0  0  0  0  0  0
   25.6944   38.0715   83.5690 H   0  0  0  0  0  0  0  0  0  0  0  0
   26.6522   37.3135   85.8011 H   0  0  0  0  0  0  0  0  0  0  0  0
   26.6540   38.9206   87.7696 H   0  0  0  0  0  0  0  0  0  0  0  0
   29.1357   42.7042   89.9597 H   0  0  0  0  0  0  0  0  0  0  0  0
   31.5047   42.9414   89.1372 H   0  0  0  0  0  0  0  0  0  0  0  0
  1  2  2  0
  2  3  1  0
  3  4  2  0
  4  5  1  0
  5  6  1  0
  6  7  1  0
  7  8  2  0
  8  9  1  0
  9 10  2  0
 10 11  1  0
 11 12  1  0
 12 13  1  0
 13 14  1  0
 14 15  1  0
 15 16  1  0
 16 17  1  0
 17 18  1  0
 18 19  1  0
 19 20  1  0
 11 21  2  0
 21 22  1  0
 22 23  1  0
 23 24  2  0
 24 25  1  0
 25 26  2  0
 26 27  1  0
 27 28  2  0
  4 29  1  0
 29 30  2  0
 30  1  1  0
 22  5  2  0
 28 23  1  0
 21  7  1  0
 20 15  1  0
  1 31  1  0
  2 32  1  0
  3 33  1  0
  9 34  1  0
 10 35  1  0
 12 36  1  0
 13 37  1  0
 13 38  1  0
 14 39  1  0
 14 40  1  0
 15 41  1  0
 16 42  1  0
 16 43  1  0
 17 44  1  0
 17 45  1  0
 18 46  1  0
 18 47  1  0
 19 48  1  0
 19 49  1  0
 20 50  1  0
 20 51  1  0
 24 52  1  0
 25 53  1  0
 26 54  1  0
 27 55  1  0
 28 56  1  0
 29 57  1  0
 30 58  1  0
M  CHG  2  15   1  18   1
M  END
>  <meeko>  (67) 
{"free_energy": -9.383, "intermolecular_energy": -8.145, "internal_energy": -1.377}

$$$$

     RDKit          3D

 58 62  0  0  0  0  0  0  0  0999 V2000
   20.2040   37.1050   84.7290 C   0  0  0  0  0  0  0  0  0  0  0  0
   20.7280   38.3260   84.1550 C   0  0  0  0  0  0  0  0  0  0  0  0
   21.5020   39.2260   84.9640 C   0  0  0  0  0  0  0  0  0  0  0  0
   21.7450   38.9120   86.3440 C   0  0  0  0  0  0  0  0  0  0  0  0
   22.5670   39.8670   87.1550 C   0  0  0  0  0  0  0  0  0  0  0  0
   22.0380   40.5180   88.2520 O   0  0  0  0  0  0  0  0  0  0  0  0
   23.0390   41.2970   88.7380 C   0  0  0  0  0  0  0  0  0  0  0  0
   22.9830   42.1380   89.8410 N   0  0  0  0  0  0  0  0  0  0  0  0
   24.0460   42.8790   90.2470 C   0  0  0  0  0  0  0  0  0  0  0  0
   25.2820   42.7970   89.5570 C   0  0  0  0  0  0  0  0  0  0  0  0
   25.3970   41.9370   88.4040 C   0  0  0  0  0  0  0  0  0  0  0  0
   26.5810   41.8290   87.7050 N   0  0  0  0  0  0  0  0  0  0  0  0
   27.0460   42.8410   86.7650 C   0  0  0  0  0  0  0  0  0  0  0  0
   27.9760   43.8700   87.4140 C   0  0  0  0  0  0  0  0  0  0  0  0
   28.8650   43.3350   88.4760 N   0  0  0  0  0  4  0  0  0  0  0  0
   29.0040   44.4260   89.4790 C   0  0  0  0  0  0  0  0  0  0  0  0
   29.9210   43.9750   90.6310 C   0  0  0  0  0  0  0  0  0  0  0  0
   31.2430   43.5670   90.0700 N   0  0  0  0  0  4  0  0  0  0  0  0
   31.1040   42.4720   89.0590 C   0  0  0  0  0  0  0  0  0  0  0  0
   30.1980   42.9760   87.9150 C   0  0  0  0  0  0  0  0  0  0  0  0
   24.2290   41.1580   87.9850 C   0  0  0  0  0  0  0  0  0  0  0  0
   24.0160   40.2600   86.9430 C   0  0  0  0  0  0  0  0  0  0  0  0
   25.0070   39.8450   85.9200 C   0  0  0  0  0  0  0  0  0  0  0  0
   25.8420   38.6960   86.1420 C   0  0  0  0  0  0  0  0  0  0  0  0
   26.8050   38.3210   85.1500 C   0  0  0  0  0  0  0  0  0  0  0  0
   26.9280   39.1010   83.9400 C   0  0  0  0  0  0  0  0  0  0  0  0
   26.0870   40.2550   83.7120 C   0  0  0  0  0  0  0  0  0  0  0  0
   25.1270   40.6280   84.7070 C   0  0  0  0  0  0  0  0  0  0  0  0
   21.2030   37.6830   86.8990 C   0  0  0  0  0  0  0  0  0  0  0  0
   20.4390   36.7850   86.1040 C   0  0  0  0  0  0  0  0  0  0  0  0
   19.6192   36.4159   84.1020 H   0  0  0  0  0  0  0  0  0  0  0  0
   20.5335   38.5648   83.0990 H   0  0  0  0  0  0  0  0  0  0  0  0
   21.9067   40.1515   84.5284 H   0  0  0  0  0  0  0  0  0  0  0  0
   23.9477   43.5465   91.1158 H   0  0  0  0  0  0  0  0  0  0  0  0
   26.1470   43.3847   89.8982 H   0  0  0  0  0  0  0  0  0  0  0  0
   26.4890   40.9930   87.1640 H   0  0  0  0  0  0  0  0  0  0  0  0
   27.5895   42.3406   85.9500 H   0  0  0  0  0  0  0  0  0  0  0  0
   26.1619   43.3804   86.3944 H   0  0  0  0  0  0  0  0  0  0  0  0
   28.6094   44.3020   86.6252 H   0  0  0  0  0  0  0  0  0  0  0  0
   27.3226   44.6067   87.9043 H   0  0  0  0  0  0  0  0  0  0  0  0
   28.4870   42.5050   88.8830 H   0  0  0  0  0  0  0  0  0  0  0  0
   29.4389   45.3123   88.9940 H   0  0  0  0  0  0  0  0  0  0  0  0
   28.0110   44.6695   89.8847 H   0  0  0  0  0  0  0  0  0  0  0  0
   30.0611   44.8063   91.3376 H   0  0  0  0  0  0  0  0  0  0  0  0
   29.4635   43.1252   91.1587 H   0  0  0  0  0  0  0  0  0  0  0  0
   31.6640   44.3590   89.6300 H   0  0  0  0  0  0  0  0  0  0  0  0
   31.8220   43.2410   90.8180 H   0  0  0  0  0  0  0  0  0  0  0  0
   32.0942   42.2075   88.6595 H   0  0  0  0  0  0  0  0  0  0  0  0
   30.6610   41.5803   89.5266 H   0  0  0  0  0  0  0  0  0  0  0  0
   30.6524   43.8620   87.4474 H   0  0  0  0  0  0  0  0  0  0  0  0
   30.0826   42.1876   87.1567 H   0  0  0  0  0  0  0  0  0  0  0  0
   25.7422   38.1090   87.0669 H   0  0  0  0  0  0  0  0  0  0  0  0
   27.4482   37.4429   85.3088 H   0  0  0  0  0  0  0  0  0  0  0  0
   27.6714   38.8131   83.1821 H   0  0  0  0  0  0  0  0  0  0  0  0
   26.1835   40.8395   82.7851 H   0  0  0  0  0  0  0  0  0  0  0  0
   24.4830   41.5060   84.5508 H   0  0  0  0  0  0  0  0  0  0  0  0
   21.3877   37.4424   87.9564 H   0  0  0  0  0  0  0  0  0  0  0  0
   20.0350   35.8590   86.5390 H   0  0  0  0  0  0  0  0  0  0  0  0
  1  2  2  0
  2  3  1  0
  3  4  2  0
  4  5  1  0
  5  6  1  0
  6  7  1  0
  7  8  2  0
  8  9  1  0
  9 10  2  0
 10 11  1  0
 11 12  1  0
 12 13  1  0
 13 14  1  0
 14 15  1  0
 15 16  1  0
 16 17  1  0
 17 18  1  0
 18 19  1  0
 19 20  1  0
 11 21  2  0
 21 22  1  0
 22 23  1  0
 23 24  2  0
 24 25  1  0
 25 26  2  0
 26 27  1  0
 27 28  2  0
  4 29  1  0
 29 30  2  0
 30  1  1  0
 22  5  2  0
 28 23  1  0
 21  7  1  0
 20 15  1  0
  1 31  1  0
  2 32  1  0
  3 33  1  0
  9 34  1  0
 10 35  1  0
 12 36  1  0
 13 37  1  0
 13 38  1  0
 14 39  1  0
 14 40  1  0
 15 41  1  0
 16 42  1  0
 16 43  1  0
 17 44  1  0
 17 45  1  0
 18 46  1  0
 18 47  1  0
 19 48  1  0
 19 49  1  0
 20 50  1  0
 20 51  1  0
 24 52  1  0
 25 53  1  0
 26 54  1  0
 27 55  1  0
 28 56  1  0
 29 57  1  0
 30 58  1  0
M  CHG  2  15   1  18   1
M  END
>  <meeko>  (68) 
{"free_energy": -9.38, "intermolecular_energy": -7.892, "internal_energy": -1.626}

$$$$

     RDKit          3D

 58 62  0  0  0  0  0  0  0  0999 V2000
   30.5190   36.4160   82.8220 C   0  0  0  0  0  0  0  0  0  0  0  0
   31.4250   37.2600   83.5710 C   0  0  0  0  0  0  0  0  0  0  0  0
   30.9190   38.3810   84.3110 C   0  0  0  0  0  0  0  0  0  0  0  0
   29.5100   38.6650   84.2960 C   0  0  0  0  0  0  0  0  0  0  0  0
   29.0140   39.8350   85.0900 C   0  0  0  0  0  0  0  0  0  0  0  0
   29.8790   40.8080   85.5510 O   0  0  0  0  0  0  0  0  0  0  0  0
   29.1080   41.7000   86.2250 C   0  0  0  0  0  0  0  0  0  0  0  0
   29.5310   42.8560   86.8660 N   0  0  0  0  0  0  0  0  0  0  0  0
   28.6750   43.6850   87.5150 C   0  0  0  0  0  0  0  0  0  0  0  0
   27.2840   43.4040   87.5390 C   0  0  0  0  0  0  0  0  0  0  0  0
   26.7880   42.2170   86.8870 C   0  0  0  0  0  0  0  0  0  0  0  0
   25.4440   41.9060   86.8860 N   0  0  0  0  0  0  0  0  0  0  0  0
   24.4740   42.5660   87.7500 C   0  0  0  0  0  0  0  0  0  0  0  0
   23.6060   43.5810   87.0010 C   0  0  0  0  0  0  0  0  0  0  0  0
   22.4120   43.0140   86.3260 N   0  0  0  0  0  4  0  0  0  0  0  0
   22.0530   41.7900   87.0930 C   0  0  0  0  0  0  0  0  0  0  0  0
   20.8190   41.1130   86.4680 C   0  0  0  0  0  0  0  0  0  0  0  0
   21.1050   40.8050   85.0350 N   0  0  0  0  0  4  0  0  0  0  0  0
   21.4700   42.0350   84.2640 C   0  0  0  0  0  0  0  0  0  0  0  0
   22.7220   42.6650   84.9110 C   0  0  0  0  0  0  0  0  0  0  0  0
   27.7400   41.3360   86.2030 C   0  0  0  0  0  0  0  0  0  0  0  0
   27.5880   40.1460   85.4980 C   0  0  0  0  0  0  0  0  0  0  0  0
   26.3160   39.4230   85.2520 C   0  0  0  0  0  0  0  0  0  0  0  0
   26.0570   38.1680   85.9030 C   0  0  0  0  0  0  0  0  0  0  0  0
   24.8300   37.4760   85.6410 C   0  0  0  0  0  0  0  0  0  0  0  0
   23.8690   38.0450   84.7240 C   0  0  0  0  0  0  0  0  0  0  0  0
   24.1250   39.3090   84.0700 C   0  0  0  0  0  0  0  0  0  0  0  0
   25.3530   39.9970   84.3340 C   0  0  0  0  0  0  0  0  0  0  0  0
   28.6210   37.8060   83.5320 C   0  0  0  0  0  0  0  0  0  0  0  0
   29.1150   36.6920   82.8000 C   0  0  0  0  0  0  0  0  0  0  0  0
   30.9134   35.5539   82.2641 H   0  0  0  0  0  0  0  0  0  0  0  0
   32.5032   37.0421   83.5732 H   0  0  0  0  0  0  0  0  0  0  0  0
   31.6057   39.0192   84.8864 H   0  0  0  0  0  0  0  0  0  0  0  0
   29.0612   44.5797   88.0253 H   0  0  0  0  0  0  0  0  0  0  0  0
   26.5895   44.0863   88.0510 H   0  0  0  0  0  0  0  0  0  0  0  0
   25.4000   40.9390   87.1340 H   0  0  0  0  0  0  0  0  0  0  0  0
   23.8184   41.8008   88.1912 H   0  0  0  0  0  0  0  0  0  0  0  0
   25.0360   43.1151   88.5199 H   0  0  0  0  0  0  0  0  0  0  0  0
   23.2621   44.3346   87.7248 H   0  0  0  0  0  0  0  0  0  0  0  0
   24.2400   43.9955   86.2033 H   0  0  0  0  0  0  0  0  0  0  0  0
   21.6590   43.6710   86.3060 H   0  0  0  0  0  0  0  0  0  0  0  0
   22.9002   41.0886   87.0752 H   0  0  0  0  0  0  0  0  0  0  0  0
   21.8205   42.0721   88.1305 H   0  0  0  0  0  0  0  0  0  0  0  0
   20.5970   40.1808   87.0081 H   0  0  0  0  0  0  0  0  0  0  0  0
   19.9518   41.7863   86.5368 H   0  0  0  0  0  0  0  0  0  0  0  0
   21.8690   40.1610   84.9920 H   0  0  0  0  0  0  0  0  0  0  0  0
   20.2880   40.3990   84.6250 H   0  0  0  0  0  0  0  0  0  0  0  0
   21.6870   41.7674   83.2194 H   0  0  0  0  0  0  0  0  0  0  0  0
   20.6358   42.7518   84.2809 H   0  0  0  0  0  0  0  0  0  0  0  0
   23.5538   41.9458   84.8821 H   0  0  0  0  0  0  0  0  0  0  0  0
   23.0100   43.5716   84.3587 H   0  0  0  0  0  0  0  0  0  0  0  0
   26.7957   37.7417   86.5976 H   0  0  0  0  0  0  0  0  0  0  0  0
   24.6205   36.5161   86.1356 H   0  0  0  0  0  0  0  0  0  0  0  0
   22.9300   37.5093   84.5207 H   0  0  0  0  0  0  0  0  0  0  0  0
   23.3851   39.7371   83.3777 H   0  0  0  0  0  0  0  0  0  0  0  0
   25.5644   40.9577   83.8417 H   0  0  0  0  0  0  0  0  0  0  0  0
   27.5426   38.0225   83.5199 H   0  0  0  0  0  0  0  0  0  0  0  0
   28.4288   36.0522   82.2257 H   0  0  0  0  0  0  0  0  0  0  0  0
  1  2  2  0
  2  3  1  0
  3  4  2  0
  4  5  1  0
  5  6  1  0
  6  7  1  0
  7  8  2  0
  8  9  1  0
  9 10  2  0
 10 11  1  0
 11 12  1  0
 12 13  1  0
 13 14  1  0
 14 15  1  0
 15 16  1  0
 16 17  1  0
 17 18  1  0
 18 19  1  0
 19 20  1  0
 11 21  2  0
 21 22  1  0
 22 23  1  0
 23 24  2  0
 24 25  1  0
 25 26  2  0
 26 27  1  0
 27 28  2  0
  4 29  1  0
 29 30  2  0
 30  1  1  0
 22  5  2  0
 28 23  1  0
 21  7  1  0
 20 15  1  0
  1 31  1  0
  2 32  1  0
  3 33  1  0
  9 34  1  0
 10 35  1  0
 12 36  1  0
 13 37  1  0
 13 38  1  0
 14 39  1  0
 14 40  1  0
 15 41  1  0
 16 42  1  0
 16 43  1  0
 17 44  1  0
 17 45  1  0
 18 46  1  0
 18 47  1  0
 19 48  1  0
 19 49  1  0
 20 50  1  0
 20 51  1  0
 24 52  1  0
 25 53  1  0
 26 54  1  0
 27 55  1  0
 28 56  1  0
 29 57  1  0
 30 58  1  0
M  CHG  2  15   1  18   1
M  END
>  <meeko>  (69) 
{"free_energy": -9.379, "intermolecular_energy": -8.368, "internal_energy": -1.149}

$$$$

     RDKit          3D

 58 62  0  0  0  0  0  0  0  0999 V2000
   30.5890   43.6570   86.1910 C   0  0  0  0  0  0  0  0  0  0  0  0
   29.1780   43.8770   85.9620 C   0  0  0  0  0  0  0  0  0  0  0  0
   28.3410   42.7910   85.5340 C   0  0  0  0  0  0  0  0  0  0  0  0
   28.9140   41.4900   85.3280 C   0  0  0  0  0  0  0  0  0  0  0  0
   28.0090   40.3770   84.8950 C   0  0  0  0  0  0  0  0  0  0  0  0
   28.2770   39.6340   83.7620 O   0  0  0  0  0  0  0  0  0  0  0  0
   27.2680   38.7300   83.6650 C   0  0  0  0  0  0  0  0  0  0  0  0
   27.1040   37.7620   82.6850 N   0  0  0  0  0  0  0  0  0  0  0  0
   26.0540   36.9020   82.6780 C   0  0  0  0  0  0  0  0  0  0  0  0
   25.0810   36.9500   83.7100 C   0  0  0  0  0  0  0  0  0  0  0  0
   25.2030   37.9350   84.7560 C   0  0  0  0  0  0  0  0  0  0  0  0
   24.2800   38.0160   85.7780 N   0  0  0  0  0  0  0  0  0  0  0  0
   22.9290   37.4780   85.6750 C   0  0  0  0  0  0  0  0  0  0  0  0
   22.1430   38.0700   84.5010 C   0  0  0  0  0  0  0  0  0  0  0  0
   21.4040   39.3220   84.8040 N   0  0  0  0  0  4  0  0  0  0  0  0
   22.1910   40.4200   84.1790 C   0  0  0  0  0  0  0  0  0  0  0  0
   21.5100   41.7760   84.4420 C   0  0  0  0  0  0  0  0  0  0  0  0
   21.3600   41.9700   85.9140 N   0  0  0  0  0  4  0  0  0  0  0  0
   20.5720   40.8640   86.5440 C   0  0  0  0  0  0  0  0  0  0  0  0
   21.3030   39.5300   86.2750 C   0  0  0  0  0  0  0  0  0  0  0  0
   26.3430   38.8560   84.7290 C   0  0  0  0  0  0  0  0  0  0  0  0
   26.7390   39.8940   85.5670 C   0  0  0  0  0  0  0  0  0  0  0  0
   26.0390   40.3560   86.7910 C   0  0  0  0  0  0  0  0  0  0  0  0
   24.7300   40.9430   86.7010 C   0  0  0  0  0  0  0  0  0  0  0  0
   24.0770   41.3980   87.8930 C   0  0  0  0  0  0  0  0  0  0  0  0
   24.7400   41.2650   89.1690 C   0  0  0  0  0  0  0  0  0  0  0  0
   26.0550   40.6710   89.2640 C   0  0  0  0  0  0  0  0  0  0  0  0
   26.7060   40.2190   88.0700 C   0  0  0  0  0  0  0  0  0  0  0  0
   30.3360   41.2960   85.5600 C   0  0  0  0  0  0  0  0  0  0  0  0
   31.1700   42.3650   85.9870 C   0  0  0  0  0  0  0  0  0  0  0  0
   31.2225   44.4917   86.5256 H   0  0  0  0  0  0  0  0  0  0  0  0
   28.7455   44.8767   86.1157 H   0  0  0  0  0  0  0  0  0  0  0  0
   27.2665   42.9548   85.3648 H   0  0  0  0  0  0  0  0  0  0  0  0
   25.9567   36.1639   81.8682 H   0  0  0  0  0  0  0  0  0  0  0  0
   24.2400   36.2410   83.7119 H   0  0  0  0  0  0  0  0  0  0  0  0
   24.1590   38.9950   85.9440 H   0  0  0  0  0  0  0  0  0  0  0  0
   22.9938   36.3881   85.5408 H   0  0  0  0  0  0  0  0  0  0  0  0
   22.3949   37.7439   86.5992 H   0  0  0  0  0  0  0  0  0  0  0  0
   22.8531   38.2819   83.6880 H   0  0  0  0  0  0  0  0  0  0  0  0
   21.3816   37.3222   84.2345 H   0  0  0  0  0  0  0  0  0  0  0  0
   20.4710   39.2870   84.4490 H   0  0  0  0  0  0  0  0  0  0  0  0
   23.2035   40.4320   84.6088 H   0  0  0  0  0  0  0  0  0  0  0  0
   22.2468   40.2499   83.0937 H   0  0  0  0  0  0  0  0  0  0  0  0
   22.1274   42.5852   84.0249 H   0  0  0  0  0  0  0  0  0  0  0  0
   20.5197   41.7923   83.9634 H   0  0  0  0  0  0  0  0  0  0  0  0
   22.2690   41.9930   86.3290 H   0  0  0  0  0  0  0  0  0  0  0  0
   20.8840   42.8350   86.0770 H   0  0  0  0  0  0  0  0  0  0  0  0
   20.4951   41.0335   87.6281 H   0  0  0  0  0  0  0  0  0  0  0  0
   19.5583   40.8321   86.1181 H   0  0  0  0  0  0  0  0  0  0  0  0
   22.3115   39.5671   86.7126 H   0  0  0  0  0  0  0  0  0  0  0  0
   20.7428   38.7002   86.7306 H   0  0  0  0  0  0  0  0  0  0  0  0
   24.2332   41.0423   85.7246 H   0  0  0  0  0  0  0  0  0  0  0  0
   23.0744   41.8469   87.8361 H   0  0  0  0  0  0  0  0  0  0  0  0
   24.2380   41.6203   90.0810 H   0  0  0  0  0  0  0  0  0  0  0  0
   26.5497   40.5673   90.2410 H   0  0  0  0  0  0  0  0  0  0  0  0
   27.7086   39.7696   88.1243 H   0  0  0  0  0  0  0  0  0  0  0  0
   30.7761   40.3004   85.4017 H   0  0  0  0  0  0  0  0  0  0  0  0
   32.2443   42.2019   86.1578 H   0  0  0  0  0  0  0  0  0  0  0  0
  1  2  2  0
  2  3  1  0
  3  4  2  0
  4  5  1  0
  5  6  1  0
  6  7  1  0
  7  8  2  0
  8  9  1  0
  9 10  2  0
 10 11  1  0
 11 12  1  0
 12 13  1  0
 13 14  1  0
 14 15  1  0
 15 16  1  0
 16 17  1  0
 17 18  1  0
 18 19  1  0
 19 20  1  0
 11 21  2  0
 21 22  1  0
 22 23  1  0
 23 24  2  0
 24 25  1  0
 25 26  2  0
 26 27  1  0
 27 28  2  0
  4 29  1  0
 29 30  2  0
 30  1  1  0
 22  5  2  0
 28 23  1  0
 21  7  1  0
 20 15  1  0
  1 31  1  0
  2 32  1  0
  3 33  1  0
  9 34  1  0
 10 35  1  0
 12 36  1  0
 13 37  1  0
 13 38  1  0
 14 39  1  0
 14 40  1  0
 15 41  1  0
 16 42  1  0
 16 43  1  0
 17 44  1  0
 17 45  1  0
 18 46  1  0
 18 47  1  0
 19 48  1  0
 19 49  1  0
 20 50  1  0
 20 51  1  0
 24 52  1  0
 25 53  1  0
 26 54  1  0
 27 55  1  0
 28 56  1  0
 29 57  1  0
 30 58  1  0
M  CHG  2  15   1  18   1
M  END
>  <meeko>  (70) 
{"free_energy": -9.352, "intermolecular_energy": -8.294, "internal_energy": -1.185}

$$$$

     RDKit          3D

 58 62  0  0  0  0  0  0  0  0999 V2000
   23.3120   35.5220   82.6850 C   0  0  0  0  0  0  0  0  0  0  0  0
   24.5700   35.9880   83.2280 C   0  0  0  0  0  0  0  0  0  0  0  0
   24.5840   37.0130   84.2330 C   0  0  0  0  0  0  0  0  0  0  0  0
   23.3450   37.5780   84.6900 C   0  0  0  0  0  0  0  0  0  0  0  0
   23.3960   38.6360   85.7500 C   0  0  0  0  0  0  0  0  0  0  0  0
   22.3470   38.8240   86.6280 O   0  0  0  0  0  0  0  0  0  0  0  0
   22.7190   39.8500   87.4360 C   0  0  0  0  0  0  0  0  0  0  0  0
   21.9880   40.4000   88.4800 N   0  0  0  0  0  0  0  0  0  0  0  0
   22.4540   41.4300   89.2320 C   0  0  0  0  0  0  0  0  0  0  0  0
   23.7410   41.9740   88.9850 C   0  0  0  0  0  0  0  0  0  0  0  0
   24.5450   41.4390   87.9140 C   0  0  0  0  0  0  0  0  0  0  0  0
   25.8010   41.9390   87.6400 N   0  0  0  0  0  0  0  0  0  0  0  0
   26.9760   41.6190   88.4400 C   0  0  0  0  0  0  0  0  0  0  0  0
   27.6860   42.8660   88.9740 C   0  0  0  0  0  0  0  0  0  0  0  0
   28.6710   43.4780   88.0470 N   0  0  0  0  0  4  0  0  0  0  0  0
   28.3470   42.9420   86.6970 C   0  0  0  0  0  0  0  0  0  0  0  0
   29.3230   43.5130   85.6510 C   0  0  0  0  0  0  0  0  0  0  0  0
   30.7220   43.1830   86.0570 N   0  0  0  0  0  4  0  0  0  0  0  0
   31.0470   43.7190   87.4170 C   0  0  0  0  0  0  0  0  0  0  0  0
   30.0610   43.1030   88.4330 C   0  0  0  0  0  0  0  0  0  0  0  0
   24.0090   40.3330   87.1140 C   0  0  0  0  0  0  0  0  0  0  0  0
   24.5190   39.6130   86.0380 C   0  0  0  0  0  0  0  0  0  0  0  0
   25.8380   39.8120   85.3880 C   0  0  0  0  0  0  0  0  0  0  0  0
   26.9960   39.1060   85.8630 C   0  0  0  0  0  0  0  0  0  0  0  0
   28.2640   39.3240   85.2330 C   0  0  0  0  0  0  0  0  0  0  0  0
   28.3660   40.2520   84.1310 C   0  0  0  0  0  0  0  0  0  0  0  0
   27.2030   40.9610   83.6470 C   0  0  0  0  0  0  0  0  0  0  0  0
   25.9370   40.7410   84.2800 C   0  0  0  0  0  0  0  0  0  0  0  0
   22.0950   37.0970   84.1260 C   0  0  0  0  0  0  0  0  0  0  0  0
   22.0720   36.0810   83.1320 C   0  0  0  0  0  0  0  0  0  0  0  0
   23.3085   34.7304   81.9212 H   0  0  0  0  0  0  0  0  0  0  0  0
   25.5164   35.5563   82.8703 H   0  0  0  0  0  0  0  0  0  0  0  0
   25.5390   37.3640   84.6511 H   0  0  0  0  0  0  0  0  0  0  0  0
   21.8302   41.8451   90.0373 H   0  0  0  0  0  0  0  0  0  0  0  0
   24.1227   42.7978   89.6059 H   0  0  0  0  0  0  0  0  0  0  0  0
   25.7060   42.9320   87.7010 H   0  0  0  0  0  0  0  0  0  0  0  0
   26.6624   41.0001   89.2936 H   0  0  0  0  0  0  0  0  0  0  0  0
   27.6853   41.0863   87.7895 H   0  0  0  0  0  0  0  0  0  0  0  0
   26.9202   43.6214   89.2040 H   0  0  0  0  0  0  0  0  0  0  0  0
   28.2581   42.5381   89.8545 H   0  0  0  0  0  0  0  0  0  0  0  0
   28.6210   44.4760   88.0710 H   0  0  0  0  0  0  0  0  0  0  0  0
   28.4305   41.8453   86.7116 H   0  0  0  0  0  0  0  0  0  0  0  0
   27.3213   43.2364   86.4300 H   0  0  0  0  0  0  0  0  0  0  0  0
   29.1103   43.0687   84.6675 H   0  0  0  0  0  0  0  0  0  0  0  0
   29.2028   44.6046   85.5888 H   0  0  0  0  0  0  0  0  0  0  0  0
   30.8260   42.1890   86.0700 H   0  0  0  0  0  0  0  0  0  0  0  0
   31.3520   43.5870   85.3940 H   0  0  0  0  0  0  0  0  0  0  0  0
   32.0777   43.4458   87.6873 H   0  0  0  0  0  0  0  0  0  0  0  0
   30.9583   44.8154   87.4218 H   0  0  0  0  0  0  0  0  0  0  0  0
   30.1625   42.0077   88.4283 H   0  0  0  0  0  0  0  0  0  0  0  0
   30.2818   43.4811   89.4421 H   0  0  0  0  0  0  0  0  0  0  0  0
   26.9094   38.4030   86.7046 H   0  0  0  0  0  0  0  0  0  0  0  0
   29.1562   38.7869   85.5871 H   0  0  0  0  0  0  0  0  0  0  0  0
   29.3423   40.4216   83.6534 H   0  0  0  0  0  0  0  0  0  0  0  0
   27.2891   41.6610   82.8028 H   0  0  0  0  0  0  0  0  0  0  0  0
   25.0429   41.2754   83.9263 H   0  0  0  0  0  0  0  0  0  0  0  0
   21.1457   37.5286   84.4760 H   0  0  0  0  0  0  0  0  0  0  0  0
   21.1173   35.7301   82.7132 H   0  0  0  0  0  0  0  0  0  0  0  0
  1  2  2  0
  2  3  1  0
  3  4  2  0
  4  5  1  0
  5  6  1  0
  6  7  1  0
  7  8  2  0
  8  9  1  0
  9 10  2  0
 10 11  1  0
 11 12  1  0
 12 13  1  0
 13 14  1  0
 14 15  1  0
 15 16  1  0
 16 17  1  0
 17 18  1  0
 18 19  1  0
 19 20  1  0
 11 21  2  0
 21 22  1  0
 22 23  1  0
 23 24  2  0
 24 25  1  0
 25 26  2  0
 26 27  1  0
 27 28  2  0
  4 29  1  0
 29 30  2  0
 30  1  1  0
 22  5  2  0
 28 23  1  0
 21  7  1  0
 20 15  1  0
  1 31  1  0
  2 32  1  0
  3 33  1  0
  9 34  1  0
 10 35  1  0
 12 36  1  0
 13 37  1  0
 13 38  1  0
 14 39  1  0
 14 40  1  0
 15 41  1  0
 16 42  1  0
 16 43  1  0
 17 44  1  0
 17 45  1  0
 18 46  1  0
 18 47  1  0
 19 48  1  0
 19 49  1  0
 20 50  1  0
 20 51  1  0
 24 52  1  0
 25 53  1  0
 26 54  1  0
 27 55  1  0
 28 56  1  0
 29 57  1  0
 30 58  1  0
M  CHG  2  15   1  18   1
M  END
>  <meeko>  (71) 
{"free_energy": -9.297, "intermolecular_energy": -8.348, "internal_energy": -1.058}

$$$$

     RDKit          3D

 58 62  0  0  0  0  0  0  0  0999 V2000
   21.5210   42.4680   90.0150 C   0  0  0  0  0  0  0  0  0  0  0  0
   20.8050   42.0890   88.8150 C   0  0  0  0  0  0  0  0  0  0  0  0
   21.4620   41.3140   87.8000 C   0  0  0  0  0  0  0  0  0  0  0  0
   22.8340   40.9250   87.9790 C   0  0  0  0  0  0  0  0  0  0  0  0
   23.4840   40.1050   86.9070 C   0  0  0  0  0  0  0  0  0  0  0  0
   23.0220   38.8430   86.5880 O   0  0  0  0  0  0  0  0  0  0  0  0
   23.8310   38.3920   85.5950 C   0  0  0  0  0  0  0  0  0  0  0  0
   23.7560   37.1670   84.9470 N   0  0  0  0  0  0  0  0  0  0  0  0
   24.6190   36.8110   83.9610 C   0  0  0  0  0  0  0  0  0  0  0  0
   25.6320   37.7080   83.5360 C   0  0  0  0  0  0  0  0  0  0  0  0
   25.7550   38.9950   84.1740 C   0  0  0  0  0  0  0  0  0  0  0  0
   26.7270   39.8970   83.7920 N   0  0  0  0  0  0  0  0  0  0  0  0
   28.1430   39.7120   84.0800 C   0  0  0  0  0  0  0  0  0  0  0  0
   29.0150   40.8350   83.5130 C   0  0  0  0  0  0  0  0  0  0  0  0
   30.3780   40.9320   84.0940 N   0  0  0  0  0  4  0  0  0  0  0  0
   30.8780   39.5340   84.1930 C   0  0  0  0  0  0  0  0  0  0  0  0
   32.2950   39.5180   84.7960 C   0  0  0  0  0  0  0  0  0  0  0  0
   32.2660   40.1920   86.1280 N   0  0  0  0  0  4  0  0  0  0  0  0
   31.7590   41.5970   86.0300 C   0  0  0  0  0  0  0  0  0  0  0  0
   30.3310   41.5610   85.4440 C   0  0  0  0  0  0  0  0  0  0  0  0
   24.8150   39.3460   85.2420 C   0  0  0  0  0  0  0  0  0  0  0  0
   24.6690   40.4790   86.0380 C   0  0  0  0  0  0  0  0  0  0  0  0
   25.5050   41.7040   85.9920 C   0  0  0  0  0  0  0  0  0  0  0  0
   25.2370   42.7300   85.0220 C   0  0  0  0  0  0  0  0  0  0  0  0
   26.0650   43.8980   84.9810 C   0  0  0  0  0  0  0  0  0  0  0  0
   27.1620   44.0300   85.9130 C   0  0  0  0  0  0  0  0  0  0  0  0
   27.4330   43.0020   86.8920 C   0  0  0  0  0  0  0  0  0  0  0  0
   26.6030   41.8350   86.9280 C   0  0  0  0  0  0  0  0  0  0  0  0
   23.5320   41.3220   89.1900 C   0  0  0  0  0  0  0  0  0  0  0  0
   22.8880   42.0870   90.2010 C   0  0  0  0  0  0  0  0  0  0  0  0
   21.0090   43.0549   90.7918 H   0  0  0  0  0  0  0  0  0  0  0  0
   19.7570   42.3949   88.6806 H   0  0  0  0  0  0  0  0  0  0  0  0
   20.9180   41.0197   86.8904 H   0  0  0  0  0  0  0  0  0  0  0  0
   24.5319   35.8212   83.4891 H   0  0  0  0  0  0  0  0  0  0  0  0
   26.3190   37.4238   82.7253 H   0  0  0  0  0  0  0  0  0  0  0  0
   26.4780   40.7550   84.2410 H   0  0  0  0  0  0  0  0  0  0  0  0
   28.2784   39.6787   85.1711 H   0  0  0  0  0  0  0  0  0  0  0  0
   28.4587   38.7734   83.6010 H   0  0  0  0  0  0  0  0  0  0  0  0
   29.1176   40.6723   82.4299 H   0  0  0  0  0  0  0  0  0  0  0  0
   28.5061   41.7758   83.7699 H   0  0  0  0  0  0  0  0  0  0  0  0
   30.9750   41.4990   83.5280 H   0  0  0  0  0  0  0  0  0  0  0  0
   30.2026   38.9511   84.8365 H   0  0  0  0  0  0  0  0  0  0  0  0
   30.9111   39.0923   83.1861 H   0  0  0  0  0  0  0  0  0  0  0  0
   32.6324   38.4780   84.9165 H   0  0  0  0  0  0  0  0  0  0  0  0
   32.9888   40.0483   84.1270 H   0  0  0  0  0  0  0  0  0  0  0  0
   31.6630   39.6750   86.7360 H   0  0  0  0  0  0  0  0  0  0  0  0
   33.1950   40.2110   86.4990 H   0  0  0  0  0  0  0  0  0  0  0  0
   31.7386   42.0550   87.0299 H   0  0  0  0  0  0  0  0  0  0  0  0
   32.4185   42.1920   85.3811 H   0  0  0  0  0  0  0  0  0  0  0  0
   29.6763   40.9719   86.1031 H   0  0  0  0  0  0  0  0  0  0  0  0
   29.9353   42.5843   85.3644 H   0  0  0  0  0  0  0  0  0  0  0  0
   24.4012   42.6190   84.3155 H   0  0  0  0  0  0  0  0  0  0  0  0
   25.8671   44.6904   84.2442 H   0  0  0  0  0  0  0  0  0  0  0  0
   27.7996   44.9256   85.8766 H   0  0  0  0  0  0  0  0  0  0  0  0
   28.2665   43.1143   87.6009 H   0  0  0  0  0  0  0  0  0  0  0  0
   26.7987   41.0411   87.6638 H   0  0  0  0  0  0  0  0  0  0  0  0
   24.5819   41.0241   89.3278 H   0  0  0  0  0  0  0  0  0  0  0  0
   23.4315   42.3811   91.1110 H   0  0  0  0  0  0  0  0  0  0  0  0
  1  2  2  0
  2  3  1  0
  3  4  2  0
  4  5  1  0
  5  6  1  0
  6  7  1  0
  7  8  2  0
  8  9  1  0
  9 10  2  0
 10 11  1  0
 11 12  1  0
 12 13  1  0
 13 14  1  0
 14 15  1  0
 15 16  1  0
 16 17  1  0
 17 18  1  0
 18 19  1  0
 19 20  1  0
 11 21  2  0
 21 22  1  0
 22 23  1  0
 23 24  2  0
 24 25  1  0
 25 26  2  0
 26 27  1  0
 27 28  2  0
  4 29  1  0
 29 30  2  0
 30  1  1  0
 22  5  2  0
 28 23  1  0
 21  7  1  0
 20 15  1  0
  1 31  1  0
  2 32  1  0
  3 33  1  0
  9 34  1  0
 10 35  1  0
 12 36  1  0
 13 37  1  0
 13 38  1  0
 14 39  1  0
 14 40  1  0
 15 41  1  0
 16 42  1  0
 16 43  1  0
 17 44  1  0
 17 45  1  0
 18 46  1  0
 18 47  1  0
 19 48  1  0
 19 49  1  0
 20 50  1  0
 20 51  1  0
 24 52  1  0
 25 53  1  0
 26 54  1  0
 27 55  1  0
 28 56  1  0
 29 57  1  0
 30 58  1  0
M  CHG  2  15   1  18   1
M  END
>  <meeko>  (72) 
{"free_energy": -9.272, "intermolecular_energy": -7.734, "internal_energy": -1.638}

$$$$

     RDKit          3D

 58 62  0  0  0  0  0  0  0  0999 V2000
   25.4890   35.3790   82.8850 C   0  0  0  0  0  0  0  0  0  0  0  0
   26.4080   36.3570   82.3430 C   0  0  0  0  0  0  0  0  0  0  0  0
   26.3250   37.7290   82.7590 C   0  0  0  0  0  0  0  0  0  0  0  0
   25.3210   38.1250   83.7070 C   0  0  0  0  0  0  0  0  0  0  0  0
   25.2710   39.5620   84.1290 C   0  0  0  0  0  0  0  0  0  0  0  0
   24.0690   40.2050   84.3480 O   0  0  0  0  0  0  0  0  0  0  0  0
   24.3880   41.4760   84.7060 C   0  0  0  0  0  0  0  0  0  0  0  0
   23.5080   42.5000   85.0280 N   0  0  0  0  0  0  0  0  0  0  0  0
   23.9310   43.7420   85.3740 C   0  0  0  0  0  0  0  0  0  0  0  0
   25.3180   44.0340   85.4430 C   0  0  0  0  0  0  0  0  0  0  0  0
   26.2770   43.0060   85.1210 C   0  0  0  0  0  0  0  0  0  0  0  0
   27.6340   43.2480   85.1750 N   0  0  0  0  0  0  0  0  0  0  0  0
   28.4360   43.0210   86.3700 C   0  0  0  0  0  0  0  0  0  0  0  0
   28.3980   44.2030   87.3430 C   0  0  0  0  0  0  0  0  0  0  0  0
   27.7340   43.9300   88.6430 N   0  0  0  0  0  4  0  0  0  0  0  0
   27.3920   42.4820   88.6290 C   0  0  0  0  0  0  0  0  0  0  0  0
   26.6870   42.0910   89.9410 C   0  0  0  0  0  0  0  0  0  0  0  0
   25.4750   42.9450   90.1170 N   0  0  0  0  0  4  0  0  0  0  0  0
   25.8180   44.4020   90.1270 C   0  0  0  0  0  0  0  0  0  0  0  0
   26.5000   44.7520   88.7870 C   0  0  0  0  0  0  0  0  0  0  0  0
   25.7880   41.6780   84.7400 C   0  0  0  0  0  0  0  0  0  0  0  0
   26.4350   40.5000   84.3790 C   0  0  0  0  0  0  0  0  0  0  0  0
   27.9020   40.2930   84.2830 C   0  0  0  0  0  0  0  0  0  0  0  0
   28.6570   40.9230   83.2340 C   0  0  0  0  0  0  0  0  0  0  0  0
   30.0690   40.6980   83.1480 C   0  0  0  0  0  0  0  0  0  0  0  0
   30.7180   39.8400   84.1130 C   0  0  0  0  0  0  0  0  0  0  0  0
   29.9630   39.2080   85.1710 C   0  0  0  0  0  0  0  0  0  0  0  0
   28.5510   39.4340   85.2530 C   0  0  0  0  0  0  0  0  0  0  0  0
   24.4060   37.1250   84.2330 C   0  0  0  0  0  0  0  0  0  0  0  0
   24.4840   35.7640   83.8280 C   0  0  0  0  0  0  0  0  0  0  0  0
   25.5640   34.3282   82.5685 H   0  0  0  0  0  0  0  0  0  0  0  0
   27.1703   36.0493   81.6121 H   0  0  0  0  0  0  0  0  0  0  0  0
   27.0267   38.4729   82.3538 H   0  0  0  0  0  0  0  0  0  0  0  0
   23.1948   44.5268   85.6022 H   0  0  0  0  0  0  0  0  0  0  0  0
   25.6591   45.0368   85.7398 H   0  0  0  0  0  0  0  0  0  0  0  0
   27.7340   44.2220   84.9740 H   0  0  0  0  0  0  0  0  0  0  0  0
   28.0529   42.1283   86.8861 H   0  0  0  0  0  0  0  0  0  0  0  0
   29.4798   42.8898   86.0486 H   0  0  0  0  0  0  0  0  0  0  0  0
   29.4346   44.5088   87.5478 H   0  0  0  0  0  0  0  0  0  0  0  0
   27.7988   44.9838   86.8519 H   0  0  0  0  0  0  0  0  0  0  0  0
   28.3310   44.1620   89.4110 H   0  0  0  0  0  0  0  0  0  0  0  0
   26.7229   42.2746   87.7809 H   0  0  0  0  0  0  0  0  0  0  0  0
   28.3169   41.8950   88.5290 H   0  0  0  0  0  0  0  0  0  0  0  0
   26.3891   41.0330   89.8981 H   0  0  0  0  0  0  0  0  0  0  0  0
   27.3720   42.2401   90.7887 H   0  0  0  0  0  0  0  0  0  0  0  0
   24.8450   42.7690   89.3610 H   0  0  0  0  0  0  0  0  0  0  0  0
   25.0420   42.7110   90.9880 H   0  0  0  0  0  0  0  0  0  0  0  0
   24.9013   44.9985   90.2441 H   0  0  0  0  0  0  0  0  0  0  0  0
   26.4950   44.6248   90.9648 H   0  0  0  0  0  0  0  0  0  0  0  0
   25.8131   44.5352   87.9556 H   0  0  0  0  0  0  0  0  0  0  0  0
   26.7605   45.8206   88.7700 H   0  0  0  0  0  0  0  0  0  0  0  0
   28.1540   41.5730   82.5029 H   0  0  0  0  0  0  0  0  0  0  0  0
   30.6569   41.1763   82.3508 H   0  0  0  0  0  0  0  0  0  0  0  0
   31.8017   39.6655   84.0413 H   0  0  0  0  0  0  0  0  0  0  0  0
   30.4667   38.5612   85.9044 H   0  0  0  0  0  0  0  0  0  0  0  0
   27.9612   38.9571   86.0497 H   0  0  0  0  0  0  0  0  0  0  0  0
   23.6373   37.4275   84.9594 H   0  0  0  0  0  0  0  0  0  0  0  0
   23.7831   35.0193   84.2331 H   0  0  0  0  0  0  0  0  0  0  0  0
  1  2  2  0
  2  3  1  0
  3  4  2  0
  4  5  1  0
  5  6  1  0
  6  7  1  0
  7  8  2  0
  8  9  1  0
  9 10  2  0
 10 11  1  0
 11 12  1  0
 12 13  1  0
 13 14  1  0
 14 15  1  0
 15 16  1  0
 16 17  1  0
 17 18  1  0
 18 19  1  0
 19 20  1  0
 11 21  2  0
 21 22  1  0
 22 23  1  0
 23 24  2  0
 24 25  1  0
 25 26  2  0
 26 27  1  0
 27 28  2  0
  4 29  1  0
 29 30  2  0
 30  1  1  0
 22  5  2  0
 28 23  1  0
 21  7  1  0
 20 15  1  0
  1 31  1  0
  2 32  1  0
  3 33  1  0
  9 34  1  0
 10 35  1  0
 12 36  1  0
 13 37  1  0
 13 38  1  0
 14 39  1  0
 14 40  1  0
 15 41  1  0
 16 42  1  0
 16 43  1  0
 17 44  1  0
 17 45  1  0
 18 46  1  0
 18 47  1  0
 19 48  1  0
 19 49  1  0
 20 50  1  0
 20 51  1  0
 24 52  1  0
 25 53  1  0
 26 54  1  0
 27 55  1  0
 28 56  1  0
 29 57  1  0
 30 58  1  0
M  CHG  2  15   1  18   1
M  END
>  <meeko>  (73) 
{"free_energy": -9.271, "intermolecular_energy": -7.916, "internal_energy": -1.455}

$$$$

     RDKit          3D

 58 62  0  0  0  0  0  0  0  0999 V2000
   25.0420   35.4200   82.4900 C   0  0  0  0  0  0  0  0  0  0  0  0
   23.9070   35.7250   83.3340 C   0  0  0  0  0  0  0  0  0  0  0  0
   23.8810   36.9440   84.0920 C   0  0  0  0  0  0  0  0  0  0  0  0
   24.9900   37.8540   84.0140 C   0  0  0  0  0  0  0  0  0  0  0  0
   24.9240   39.1230   84.8080 C   0  0  0  0  0  0  0  0  0  0  0  0
   23.7490   39.5360   85.4050 O   0  0  0  0  0  0  0  0  0  0  0  0
   24.0410   40.7070   86.0270 C   0  0  0  0  0  0  0  0  0  0  0  0
   23.1750   41.5010   86.7650 N   0  0  0  0  0  0  0  0  0  0  0  0
   23.5680   42.6610   87.3500 C   0  0  0  0  0  0  0  0  0  0  0  0
   24.9140   43.0970   87.2440 C   0  0  0  0  0  0  0  0  0  0  0  0
   25.8590   42.3100   86.4900 C   0  0  0  0  0  0  0  0  0  0  0  0
   27.1760   42.6970   86.3610 N   0  0  0  0  0  0  0  0  0  0  0  0
   27.6760   43.9850   86.8260 C   0  0  0  0  0  0  0  0  0  0  0  0
   29.0750   44.3050   86.2910 C   0  0  0  0  0  0  0  0  0  0  0  0
   30.1980   43.8650   87.1570 N   0  0  0  0  0  4  0  0  0  0  0  0
   30.7760   42.6640   86.4950 C   0  0  0  0  0  0  0  0  0  0  0  0
   31.9540   42.1170   87.3220 C   0  0  0  0  0  0  0  0  0  0  0  0
   31.4810   41.8130   88.7050 N   0  0  0  0  0  4  0  0  0  0  0  0
   30.8960   43.0200   89.3700 C   0  0  0  0  0  0  0  0  0  0  0  0
   29.7070   43.5180   88.5200 C   0  0  0  0  0  0  0  0  0  0  0  0
   25.4000   41.0670   85.8620 C   0  0  0  0  0  0  0  0  0  0  0  0
   26.0430   40.1060   85.0870 C   0  0  0  0  0  0  0  0  0  0  0  0
   27.4690   40.1150   84.6760 C   0  0  0  0  0  0  0  0  0  0  0  0
   27.9160   40.9850   83.6230 C   0  0  0  0  0  0  0  0  0  0  0  0
   29.2930   40.9670   83.2290 C   0  0  0  0  0  0  0  0  0  0  0  0
   30.2160   40.0740   83.8910 C   0  0  0  0  0  0  0  0  0  0  0  0
   29.7710   39.1990   84.9520 C   0  0  0  0  0  0  0  0  0  0  0  0
   28.3930   39.2190   85.3430 C   0  0  0  0  0  0  0  0  0  0  0  0
   26.1220   37.5220   83.1640 C   0  0  0  0  0  0  0  0  0  0  0  0
   26.1540   36.3190   82.4080 C   0  0  0  0  0  0  0  0  0  0  0  0
   25.0509   34.4882   81.9054 H   0  0  0  0  0  0  0  0  0  0  0  0
   23.0631   35.0221   83.3949 H   0  0  0  0  0  0  0  0  0  0  0  0
   23.0162   37.1801   84.7294 H   0  0  0  0  0  0  0  0  0  0  0  0
   22.8392   43.2662   87.9091 H   0  0  0  0  0  0  0  0  0  0  0  0
   25.2347   44.0285   87.7333 H   0  0  0  0  0  0  0  0  0  0  0  0
   27.3570   42.6860   85.3780 H   0  0  0  0  0  0  0  0  0  0  0  0
   26.9835   44.7722   86.4930 H   0  0  0  0  0  0  0  0  0  0  0  0
   27.7428   43.9387   87.9230 H   0  0  0  0  0  0  0  0  0  0  0  0
   29.1863   43.8135   85.3132 H   0  0  0  0  0  0  0  0  0  0  0  0
   29.1395   45.4020   86.2407 H   0  0  0  0  0  0  0  0  0  0  0  0
   30.8780   44.5890   87.2670 H   0  0  0  0  0  0  0  0  0  0  0  0
   30.0010   41.8881   86.4089 H   0  0  0  0  0  0  0  0  0  0  0  0
   31.1387   42.9446   85.4952 H   0  0  0  0  0  0  0  0  0  0  0  0
   32.3376   41.1985   86.8538 H   0  0  0  0  0  0  0  0  0  0  0  0
   32.7581   42.8665   87.3619 H   0  0  0  0  0  0  0  0  0  0  0  0
   30.7790   41.1030   88.6560 H   0  0  0  0  0  0  0  0  0  0  0  0
   32.2580   41.4940   89.2480 H   0  0  0  0  0  0  0  0  0  0  0  0
   30.5462   42.7552   90.3787 H   0  0  0  0  0  0  0  0  0  0  0  0
   31.6566   43.8102   89.4547 H   0  0  0  0  0  0  0  0  0  0  0  0
   28.9475   42.7256   88.4479 H   0  0  0  0  0  0  0  0  0  0  0  0
   29.2588   44.4053   88.9910 H   0  0  0  0  0  0  0  0  0  0  0  0
   27.2057   41.6600   83.1232 H   0  0  0  0  0  0  0  0  0  0  0  0
   29.6463   41.6303   82.4257 H   0  0  0  0  0  0  0  0  0  0  0  0
   31.2720   40.0598   83.5833 H   0  0  0  0  0  0  0  0  0  0  0  0
   30.4820   38.5258   85.4532 H   0  0  0  0  0  0  0  0  0  0  0  0
   28.0374   38.5570   86.1463 H   0  0  0  0  0  0  0  0  0  0  0  0
   26.9724   38.2173   83.1048 H   0  0  0  0  0  0  0  0  0  0  0  0
   27.0185   36.0822   81.7704 H   0  0  0  0  0  0  0  0  0  0  0  0
  1  2  2  0
  2  3  1  0
  3  4  2  0
  4  5  1  0
  5  6  1  0
  6  7  1  0
  7  8  2  0
  8  9  1  0
  9 10  2  0
 10 11  1  0
 11 12  1  0
 12 13  1  0
 13 14  1  0
 14 15  1  0
 15 16  1  0
 16 17  1  0
 17 18  1  0
 18 19  1  0
 19 20  1  0
 11 21  2  0
 21 22  1  0
 22 23  1  0
 23 24  2  0
 24 25  1  0
 25 26  2  0
 26 27  1  0
 27 28  2  0
  4 29  1  0
 29 30  2  0
 30  1  1  0
 22  5  2  0
 28 23  1  0
 21  7  1  0
 20 15  1  0
  1 31  1  0
  2 32  1  0
  3 33  1  0
  9 34  1  0
 10 35  1  0
 12 36  1  0
 13 37  1  0
 13 38  1  0
 14 39  1  0
 14 40  1  0
 15 41  1  0
 16 42  1  0
 16 43  1  0
 17 44  1  0
 17 45  1  0
 18 46  1  0
 18 47  1  0
 19 48  1  0
 19 49  1  0
 20 50  1  0
 20 51  1  0
 24 52  1  0
 25 53  1  0
 26 54  1  0
 27 55  1  0
 28 56  1  0
 29 57  1  0
 30 58  1  0
M  CHG  2  15   1  18   1
M  END
>  <meeko>  (74) 
{"free_energy": -9.252, "intermolecular_energy": -8.021, "internal_energy": -1.325}

$$$$

     RDKit          3D

 58 62  0  0  0  0  0  0  0  0999 V2000
   20.3810   37.6020   85.9090 C   0  0  0  0  0  0  0  0  0  0  0  0
   21.4550   37.1570   85.0490 C   0  0  0  0  0  0  0  0  0  0  0  0
   22.6180   37.9790   84.8650 C   0  0  0  0  0  0  0  0  0  0  0  0
   22.7040   39.2480   85.5330 C   0  0  0  0  0  0  0  0  0  0  0  0
   23.9370   40.0750   85.3300 C   0  0  0  0  0  0  0  0  0  0  0  0
   24.0140   41.3750   85.7890 O   0  0  0  0  0  0  0  0  0  0  0  0
   25.2470   41.8210   85.4350 C   0  0  0  0  0  0  0  0  0  0  0  0
   25.7860   43.0760   85.6840 N   0  0  0  0  0  0  0  0  0  0  0  0
   27.0360   43.4240   85.2860 C   0  0  0  0  0  0  0  0  0  0  0  0
   27.8590   42.4880   84.6090 C   0  0  0  0  0  0  0  0  0  0  0  0
   27.3510   41.1680   84.3250 C   0  0  0  0  0  0  0  0  0  0  0  0
   28.1180   40.2290   83.6690 N   0  0  0  0  0  0  0  0  0  0  0  0
   28.8510   39.1760   84.3600 C   0  0  0  0  0  0  0  0  0  0  0  0
   30.3650   39.2720   84.1500 C   0  0  0  0  0  0  0  0  0  0  0  0
   30.9840   38.1030   83.4760 N   0  0  0  0  0  4  0  0  0  0  0  0
   31.5700   38.6250   82.2120 C   0  0  0  0  0  0  0  0  0  0  0  0
   32.2380   37.4820   81.4240 C   0  0  0  0  0  0  0  0  0  0  0  0
   31.2290   36.4120   81.1670 N   0  0  0  0  0  4  0  0  0  0  0  0
   30.6370   35.8890   82.4390 C   0  0  0  0  0  0  0  0  0  0  0  0
   29.9600   37.0620   83.1810 C   0  0  0  0  0  0  0  0  0  0  0  0
   25.9930   40.8270   84.7600 C   0  0  0  0  0  0  0  0  0  0  0  0
   25.2270   39.6710   84.6430 C   0  0  0  0  0  0  0  0  0  0  0  0
   25.6370   38.4010   83.9930 C   0  0  0  0  0  0  0  0  0  0  0  0
   25.9690   38.3760   82.5950 C   0  0  0  0  0  0  0  0  0  0  0  0
   26.3480   37.1380   81.9820 C   0  0  0  0  0  0  0  0  0  0  0  0
   26.3890   35.9300   82.7730 C   0  0  0  0  0  0  0  0  0  0  0  0
   26.0590   35.9520   84.1800 C   0  0  0  0  0  0  0  0  0  0  0  0
   25.6800   37.1920   84.7890 C   0  0  0  0  0  0  0  0  0  0  0  0
   21.6090   39.6760   86.3870 C   0  0  0  0  0  0  0  0  0  0  0  0
   20.4560   38.8660   86.5770 C   0  0  0  0  0  0  0  0  0  0  0  0
   19.4973   36.9627   86.0514 H   0  0  0  0  0  0  0  0  0  0  0  0
   21.3810   36.1873   84.5350 H   0  0  0  0  0  0  0  0  0  0  0  0
   23.4385   37.6389   84.2161 H   0  0  0  0  0  0  0  0  0  0  0  0
   27.4128   44.4372   85.4895 H   0  0  0  0  0  0  0  0  0  0  0  0
   28.8780   42.7668   84.3025 H   0  0  0  0  0  0  0  0  0  0  0  0
   28.8140   40.7550   83.1810 H   0  0  0  0  0  0  0  0  0  0  0  0
   28.6401   39.2494   85.4371 H   0  0  0  0  0  0  0  0  0  0  0  0
   28.5190   38.2132   83.9443 H   0  0  0  0  0  0  0  0  0  0  0  0
   30.5682   40.1641   83.5394 H   0  0  0  0  0  0  0  0  0  0  0  0
   30.8108   39.3171   85.1546 H   0  0  0  0  0  0  0  0  0  0  0  0
   31.6780   37.6750   84.0550 H   0  0  0  0  0  0  0  0  0  0  0  0
   30.7731   39.0716   81.5992 H   0  0  0  0  0  0  0  0  0  0  0  0
   32.3276   39.3848   82.4543 H   0  0  0  0  0  0  0  0  0  0  0  0
   32.6182   37.8676   80.4665 H   0  0  0  0  0  0  0  0  0  0  0  0
   33.0754   37.0700   82.0063 H   0  0  0  0  0  0  0  0  0  0  0  0
   30.4960   36.7910   80.6040 H   0  0  0  0  0  0  0  0  0  0  0  0
   31.6770   35.6570   80.6880 H   0  0  0  0  0  0  0  0  0  0  0  0
   29.8906   35.1141   82.2101 H   0  0  0  0  0  0  0  0  0  0  0  0
   31.4240   35.4480   83.0684 H   0  0  0  0  0  0  0  0  0  0  0  0
   29.1689   37.4913   82.5487 H   0  0  0  0  0  0  0  0  0  0  0  0
   29.5147   36.7012   84.1199 H   0  0  0  0  0  0  0  0  0  0  0  0
   25.9324   39.3005   82.0001 H   0  0  0  0  0  0  0  0  0  0  0  0
   26.6068   37.1074   80.9133 H   0  0  0  0  0  0  0  0  0  0  0  0
   26.6754   34.9801   82.2979 H   0  0  0  0  0  0  0  0  0  0  0  0
   26.0984   35.0281   84.7757 H   0  0  0  0  0  0  0  0  0  0  0  0
   25.4225   37.2257   85.8579 H   0  0  0  0  0  0  0  0  0  0  0  0
   21.6735   40.6481   86.8978 H   0  0  0  0  0  0  0  0  0  0  0  0
   19.6354   39.2049   87.2264 H   0  0  0  0  0  0  0  0  0  0  0  0
  1  2  2  0
  2  3  1  0
  3  4  2  0
  4  5  1  0
  5  6  1  0
  6  7  1  0
  7  8  2  0
  8  9  1  0
  9 10  2  0
 10 11  1  0
 11 12  1  0
 12 13  1  0
 13 14  1  0
 14 15  1  0
 15 16  1  0
 16 17  1  0
 17 18  1  0
 18 19  1  0
 19 20  1  0
 11 21  2  0
 21 22  1  0
 22 23  1  0
 23 24  2  0
 24 25  1  0
 25 26  2  0
 26 27  1  0
 27 28  2  0
  4 29  1  0
 29 30  2  0
 30  1  1  0
 22  5  2  0
 28 23  1  0
 21  7  1  0
 20 15  1  0
  1 31  1  0
  2 32  1  0
  3 33  1  0
  9 34  1  0
 10 35  1  0
 12 36  1  0
 13 37  1  0
 13 38  1  0
 14 39  1  0
 14 40  1  0
 15 41  1  0
 16 42  1  0
 16 43  1  0
 17 44  1  0
 17 45  1  0
 18 46  1  0
 18 47  1  0
 19 48  1  0
 19 49  1  0
 20 50  1  0
 20 51  1  0
 24 52  1  0
 25 53  1  0
 26 54  1  0
 27 55  1  0
 28 56  1  0
 29 57  1  0
 30 58  1  0
M  CHG  2  15   1  18   1
M  END
>  <meeko>  (75) 
{"free_energy": -9.237, "intermolecular_energy": -8.832, "internal_energy": -0.493}

$$$$

     RDKit          3D

 58 62  0  0  0  0  0  0  0  0999 V2000
   26.9840   35.7000   82.5150 C   0  0  0  0  0  0  0  0  0  0  0  0
   25.6110   35.4270   82.8800 C   0  0  0  0  0  0  0  0  0  0  0  0
   24.8040   36.4590   83.4690 C   0  0  0  0  0  0  0  0  0  0  0  0
   25.3710   37.7590   83.7000 C   0  0  0  0  0  0  0  0  0  0  0  0
   24.4970   38.8160   84.3040 C   0  0  0  0  0  0  0  0  0  0  0  0
   23.1220   38.6840   84.3280 O   0  0  0  0  0  0  0  0  0  0  0  0
   22.6530   39.8070   84.9310 C   0  0  0  0  0  0  0  0  0  0  0  0
   21.3270   40.1270   85.1850 N   0  0  0  0  0  0  0  0  0  0  0  0
   20.9610   41.2820   85.7970 C   0  0  0  0  0  0  0  0  0  0  0  0
   21.9450   42.2080   86.2290 C   0  0  0  0  0  0  0  0  0  0  0  0
   23.3390   41.9250   85.9930 C   0  0  0  0  0  0  0  0  0  0  0  0
   24.3280   42.7980   86.3960 N   0  0  0  0  0  0  0  0  0  0  0  0
   24.0580   44.0040   87.1680 C   0  0  0  0  0  0  0  0  0  0  0  0
   23.6380   43.7040   88.6100 C   0  0  0  0  0  0  0  0  0  0  0  0
   24.7580   43.5080   89.5650 N   0  0  0  0  0  4  0  0  0  0  0  0
   25.9030   44.2830   89.0150 C   0  0  0  0  0  0  0  0  0  0  0  0
   27.1310   44.1410   89.9350 C   0  0  0  0  0  0  0  0  0  0  0  0
   27.4620   42.6930   90.0860 N   0  0  0  0  0  4  0  0  0  0  0  0
   26.3090   41.9130   90.6360 C   0  0  0  0  0  0  0  0  0  0  0  0
   25.1120   42.0650   89.6720 C   0  0  0  0  0  0  0  0  0  0  0  0
   23.7010   40.6740   85.3200 C   0  0  0  0  0  0  0  0  0  0  0  0
   24.9230   40.1180   84.9520 C   0  0  0  0  0  0  0  0  0  0  0  0
   26.2650   40.7140   85.1710 C   0  0  0  0  0  0  0  0  0  0  0  0
   26.9600   40.5010   86.4100 C   0  0  0  0  0  0  0  0  0  0  0  0
   28.2470   41.0980   86.6090 C   0  0  0  0  0  0  0  0  0  0  0  0
   28.8300   41.9080   85.5650 C   0  0  0  0  0  0  0  0  0  0  0  0
   28.1350   42.1220   84.3150 C   0  0  0  0  0  0  0  0  0  0  0  0
   26.8480   41.5240   84.1210 C   0  0  0  0  0  0  0  0  0  0  0  0
   26.7540   38.0060   83.3300 C   0  0  0  0  0  0  0  0  0  0  0  0
   27.5580   36.9910   82.7440 C   0  0  0  0  0  0  0  0  0  0  0  0
   27.5932   34.9071   82.0567 H   0  0  0  0  0  0  0  0  0  0  0  0
   25.1846   34.4280   82.7063 H   0  0  0  0  0  0  0  0  0  0  0  0
   23.7580   36.2553   83.7417 H   0  0  0  0  0  0  0  0  0  0  0  0
   19.8953   41.5012   85.9589 H   0  0  0  0  0  0  0  0  0  0  0  0
   21.6467   43.1352   86.7403 H   0  0  0  0  0  0  0  0  0  0  0  0
   24.7540   43.1180   85.5510 H   0  0  0  0  0  0  0  0  0  0  0  0
   24.9693   44.6197   87.1882 H   0  0  0  0  0  0  0  0  0  0  0  0
   23.2221   44.5282   86.6818 H   0  0  0  0  0  0  0  0  0  0  0  0
   23.0275   44.5456   88.9691 H   0  0  0  0  0  0  0  0  0  0  0  0
   23.0927   42.7492   88.5776 H   0  0  0  0  0  0  0  0  0  0  0  0
   24.5100   43.8160   90.4840 H   0  0  0  0  0  0  0  0  0  0  0  0
   26.1527   43.9017   88.0139 H   0  0  0  0  0  0  0  0  0  0  0  0
   25.6216   45.3445   88.9524 H   0  0  0  0  0  0  0  0  0  0  0  0
   27.9871   44.6704   89.4914 H   0  0  0  0  0  0  0  0  0  0  0  0
   26.9084   44.5755   90.9207 H   0  0  0  0  0  0  0  0  0  0  0  0
   27.7010   42.3230   89.1890 H   0  0  0  0  0  0  0  0  0  0  0  0
   28.2370   42.6050   90.7130 H   0  0  0  0  0  0  0  0  0  0  0  0
   26.5853   40.8516   90.7204 H   0  0  0  0  0  0  0  0  0  0  0  0
   26.0402   42.2897   91.6339 H   0  0  0  0  0  0  0  0  0  0  0  0
   25.3858   41.6775   88.6796 H   0  0  0  0  0  0  0  0  0  0  0  0
   24.2509   41.4977   90.0551 H   0  0  0  0  0  0  0  0  0  0  0  0
   26.5073   39.8840   87.2002 H   0  0  0  0  0  0  0  0  0  0  0  0
   28.7890   40.9401   87.5531 H   0  0  0  0  0  0  0  0  0  0  0  0
   29.8164   42.3685   85.7229 H   0  0  0  0  0  0  0  0  0  0  0  0
   28.5889   42.7362   83.5233 H   0  0  0  0  0  0  0  0  0  0  0  0
   26.3040   41.6793   83.1776 H   0  0  0  0  0  0  0  0  0  0  0  0
   27.1886   39.0008   83.5074 H   0  0  0  0  0  0  0  0  0  0  0  0
   28.6040   37.1942   82.4710 H   0  0  0  0  0  0  0  0  0  0  0  0
  1  2  2  0
  2  3  1  0
  3  4  2  0
  4  5  1  0
  5  6  1  0
  6  7  1  0
  7  8  2  0
  8  9  1  0
  9 10  2  0
 10 11  1  0
 11 12  1  0
 12 13  1  0
 13 14  1  0
 14 15  1  0
 15 16  1  0
 16 17  1  0
 17 18  1  0
 18 19  1  0
 19 20  1  0
 11 21  2  0
 21 22  1  0
 22 23  1  0
 23 24  2  0
 24 25  1  0
 25 26  2  0
 26 27  1  0
 27 28  2  0
  4 29  1  0
 29 30  2  0
 30  1  1  0
 22  5  2  0
 28 23  1  0
 21  7  1  0
 20 15  1  0
  1 31  1  0
  2 32  1  0
  3 33  1  0
  9 34  1  0
 10 35  1  0
 12 36  1  0
 13 37  1  0
 13 38  1  0
 14 39  1  0
 14 40  1  0
 15 41  1  0
 16 42  1  0
 16 43  1  0
 17 44  1  0
 17 45  1  0
 18 46  1  0
 18 47  1  0
 19 48  1  0
 19 49  1  0
 20 50  1  0
 20 51  1  0
 24 52  1  0
 25 53  1  0
 26 54  1  0
 27 55  1  0
 28 56  1  0
 29 57  1  0
 30 58  1  0
M  CHG  2  15   1  18   1
M  END
>  <meeko>  (76) 
{"free_energy": -9.225, "intermolecular_energy": -8.158, "internal_energy": -1.151}

$$$$

     RDKit          3D

 58 62  0  0  0  0  0  0  0  0999 V2000
   30.4760   43.9660   87.7860 C   0  0  0  0  0  0  0  0  0  0  0  0
   29.6990   43.2350   88.7640 C   0  0  0  0  0  0  0  0  0  0  0  0
   28.6690   42.3310   88.3350 C   0  0  0  0  0  0  0  0  0  0  0  0
   28.4100   42.1630   86.9320 C   0  0  0  0  0  0  0  0  0  0  0  0
   27.3380   41.2010   86.5190 C   0  0  0  0  0  0  0  0  0  0  0  0
   27.6480   39.9660   85.9850 O   0  0  0  0  0  0  0  0  0  0  0  0
   26.4580   39.3670   85.7220 C   0  0  0  0  0  0  0  0  0  0  0  0
   26.2590   38.1050   85.1780 N   0  0  0  0  0  0  0  0  0  0  0  0
   25.0210   37.5960   84.9540 C   0  0  0  0  0  0  0  0  0  0  0  0
   23.8650   38.3430   85.2980 C   0  0  0  0  0  0  0  0  0  0  0  0
   24.0130   39.6590   85.8690 C   0  0  0  0  0  0  0  0  0  0  0  0
   22.9150   40.4180   86.2170 N   0  0  0  0  0  0  0  0  0  0  0  0
   21.9280   39.9870   87.1990 C   0  0  0  0  0  0  0  0  0  0  0  0
   20.4890   40.1460   86.7000 C   0  0  0  0  0  0  0  0  0  0  0  0
   19.8980   38.9350   86.0780 N   0  0  0  0  0  4  0  0  0  0  0  0
   20.5290   37.7750   86.7650 C   0  0  0  0  0  0  0  0  0  0  0  0
   19.9880   36.4550   86.1850 C   0  0  0  0  0  0  0  0  0  0  0  0
   20.2370   36.4300   84.7130 N   0  0  0  0  0  4  0  0  0  0  0  0
   19.6060   37.5980   84.0220 C   0  0  0  0  0  0  0  0  0  0  0  0
   20.1950   38.8950   84.6180 C   0  0  0  0  0  0  0  0  0  0  0  0
   25.3630   40.1850   86.0890 C   0  0  0  0  0  0  0  0  0  0  0  0
   25.8360   41.3870   86.6070 C   0  0  0  0  0  0  0  0  0  0  0  0
   25.0130   42.5200   87.0990 C   0  0  0  0  0  0  0  0  0  0  0  0
   24.6350   42.5960   88.4840 C   0  0  0  0  0  0  0  0  0  0  0  0
   23.8270   43.6880   88.9360 C   0  0  0  0  0  0  0  0  0  0  0  0
   23.3990   44.6990   87.9980 C   0  0  0  0  0  0  0  0  0  0  0  0
   23.7790   44.6280   86.6050 C   0  0  0  0  0  0  0  0  0  0  0  0
   24.5860   43.5340   86.1560 C   0  0  0  0  0  0  0  0  0  0  0  0
   29.2000   42.9120   85.9690 C   0  0  0  0  0  0  0  0  0  0  0  0
   30.2230   43.8070   86.3870 C   0  0  0  0  0  0  0  0  0  0  0  0
   31.2689   44.6506   88.1217 H   0  0  0  0  0  0  0  0  0  0  0  0
   29.8977   43.3720   89.8372 H   0  0  0  0  0  0  0  0  0  0  0  0
   28.0814   41.7701   89.0768 H   0  0  0  0  0  0  0  0  0  0  0  0
   24.9133   36.5985   84.5031 H   0  0  0  0  0  0  0  0  0  0  0  0
   22.8629   37.9214   85.1304 H   0  0  0  0  0  0  0  0  0  0  0  0
   22.4030   40.5420   85.3680 H   0  0  0  0  0  0  0  0  0  0  0  0
   22.1042   38.9267   87.4329 H   0  0  0  0  0  0  0  0  0  0  0  0
   22.0436   40.6245   88.0879 H   0  0  0  0  0  0  0  0  0  0  0  0
   19.8609   40.4291   87.5575 H   0  0  0  0  0  0  0  0  0  0  0  0
   20.5230   40.9096   85.9089 H   0  0  0  0  0  0  0  0  0  0  0  0
   18.9030   38.9250   86.1740 H   0  0  0  0  0  0  0  0  0  0  0  0
   21.6187   37.8158   86.6204 H   0  0  0  0  0  0  0  0  0  0  0  0
   20.2906   37.8201   87.8379 H   0  0  0  0  0  0  0  0  0  0  0  0
   20.5015   35.6061   86.6600 H   0  0  0  0  0  0  0  0  0  0  0  0
   18.9080   36.3797   86.3796 H   0  0  0  0  0  0  0  0  0  0  0  0
   21.2240   36.4580   84.5540 H   0  0  0  0  0  0  0  0  0  0  0  0
   19.8510   35.5880   84.3360 H   0  0  0  0  0  0  0  0  0  0  0  0
   19.8222   37.5530   82.9444 H   0  0  0  0  0  0  0  0  0  0  0  0
   18.5156   37.5777   84.1660 H   0  0  0  0  0  0  0  0  0  0  0  0
   21.2838   38.9115   84.4623 H   0  0  0  0  0  0  0  0  0  0  0  0
   19.7469   39.7691   84.1229 H   0  0  0  0  0  0  0  0  0  0  0  0
   24.9643   41.8206   89.1914 H   0  0  0  0  0  0  0  0  0  0  0  0
   23.5333   43.7566   89.9938 H   0  0  0  0  0  0  0  0  0  0  0  0
   22.7753   45.5346   88.3482 H   0  0  0  0  0  0  0  0  0  0  0  0
   23.4520   45.4052   85.8985 H   0  0  0  0  0  0  0  0  0  0  0  0
   24.8809   43.4634   85.0986 H   0  0  0  0  0  0  0  0  0  0  0  0
   29.0025   42.7839   84.8945 H   0  0  0  0  0  0  0  0  0  0  0  0
   30.8108   44.3685   85.6459 H   0  0  0  0  0  0  0  0  0  0  0  0
  1  2  2  0
  2  3  1  0
  3  4  2  0
  4  5  1  0
  5  6  1  0
  6  7  1  0
  7  8  2  0
  8  9  1  0
  9 10  2  0
 10 11  1  0
 11 12  1  0
 12 13  1  0
 13 14  1  0
 14 15  1  0
 15 16  1  0
 16 17  1  0
 17 18  1  0
 18 19  1  0
 19 20  1  0
 11 21  2  0
 21 22  1  0
 22 23  1  0
 23 24  2  0
 24 25  1  0
 25 26  2  0
 26 27  1  0
 27 28  2  0
  4 29  1  0
 29 30  2  0
 30  1  1  0
 22  5  2  0
 28 23  1  0
 21  7  1  0
 20 15  1  0
  1 31  1  0
  2 32  1  0
  3 33  1  0
  9 34  1  0
 10 35  1  0
 12 36  1  0
 13 37  1  0
 13 38  1  0
 14 39  1  0
 14 40  1  0
 15 41  1  0
 16 42  1  0
 16 43  1  0
 17 44  1  0
 17 45  1  0
 18 46  1  0
 18 47  1  0
 19 48  1  0
 19 49  1  0
 20 50  1  0
 20 51  1  0
 24 52  1  0
 25 53  1  0
 26 54  1  0
 27 55  1  0
 28 56  1  0
 29 57  1  0
 30 58  1  0
M  CHG  2  15   1  18   1
M  END
>  <meeko>  (77) 
{"free_energy": -9.148, "intermolecular_energy": -7.499, "internal_energy": -1.706}

$$$$

     RDKit          3D

 58 62  0  0  0  0  0  0  0  0999 V2000
   29.6400   35.8140   82.3240 C   0  0  0  0  0  0  0  0  0  0  0  0
   28.4020   36.4740   82.6790 C   0  0  0  0  0  0  0  0  0  0  0  0
   28.4280   37.6960   83.4320 C   0  0  0  0  0  0  0  0  0  0  0  0
   29.6880   38.2550   83.8370 C   0  0  0  0  0  0  0  0  0  0  0  0
   29.6790   39.5380   84.6100 C   0  0  0  0  0  0  0  0  0  0  0  0
   30.8440   40.2430   84.8450 O   0  0  0  0  0  0  0  0  0  0  0  0
   30.4770   41.3340   85.5670 C   0  0  0  0  0  0  0  0  0  0  0  0
   31.3070   42.3420   86.0380 N   0  0  0  0  0  0  0  0  0  0  0  0
   30.8390   43.3950   86.7550 C   0  0  0  0  0  0  0  0  0  0  0  0
   29.4520   43.5150   87.0300 C   0  0  0  0  0  0  0  0  0  0  0  0
   28.5440   42.4970   86.5630 C   0  0  0  0  0  0  0  0  0  0  0  0
   27.1890   42.5760   86.8090 N   0  0  0  0  0  0  0  0  0  0  0  0
   26.5960   42.2620   88.1020 C   0  0  0  0  0  0  0  0  0  0  0  0
   25.6860   43.3780   88.6240 C   0  0  0  0  0  0  0  0  0  0  0  0
   24.5750   43.7620   87.7170 N   0  0  0  0  0  4  0  0  0  0  0  0
   24.1340   42.5030   87.0570 C   0  0  0  0  0  0  0  0  0  0  0  0
   22.9790   42.7920   86.0800 C   0  0  0  0  0  0  0  0  0  0  0  0
   23.4230   43.8130   85.0860 N   0  0  0  0  0  4  0  0  0  0  0  0
   23.8700   45.0780   85.7500 C   0  0  0  0  0  0  0  0  0  0  0  0
   25.0410   44.7450   86.6990 C   0  0  0  0  0  0  0  0  0  0  0  0
   29.0820   41.3670   85.8000 C   0  0  0  0  0  0  0  0  0  0  0  0
   28.4890   40.2480   85.2240 C   0  0  0  0  0  0  0  0  0  0  0  0
   27.0450   39.9030   85.2490 C   0  0  0  0  0  0  0  0  0  0  0  0
   26.5210   39.0480   86.2780 C   0  0  0  0  0  0  0  0  0  0  0  0
   25.1280   38.7130   86.2760 C   0  0  0  0  0  0  0  0  0  0  0  0
   24.2670   39.2350   85.2400 C   0  0  0  0  0  0  0  0  0  0  0  0
   24.7910   40.0990   84.2050 C   0  0  0  0  0  0  0  0  0  0  0  0
   26.1840   40.4300   84.2100 C   0  0  0  0  0  0  0  0  0  0  0  0
   30.9180   37.5700   83.4730 C   0  0  0  0  0  0  0  0  0  0  0  0
   30.9000   36.3620   82.7250 C   0  0  0  0  0  0  0  0  0  0  0  0
   29.6124   34.8821   81.7403 H   0  0  0  0  0  0  0  0  0  0  0  0
   27.4397   36.0387   82.3714 H   0  0  0  0  0  0  0  0  0  0  0  0
   27.4880   38.2018   83.6975 H   0  0  0  0  0  0  0  0  0  0  0  0
   31.5383   44.1593   87.1248 H   0  0  0  0  0  0  0  0  0  0  0  0
   29.0722   44.3787   87.5955 H   0  0  0  0  0  0  0  0  0  0  0  0
   26.7690   41.9350   86.1660 H   0  0  0  0  0  0  0  0  0  0  0  0
   26.0017   41.3418   88.0020 H   0  0  0  0  0  0  0  0  0  0  0  0
   27.4180   42.1404   88.8228 H   0  0  0  0  0  0  0  0  0  0  0  0
   25.2482   43.0432   89.5760 H   0  0  0  0  0  0  0  0  0  0  0  0
   26.3220   44.2700   88.7233 H   0  0  0  0  0  0  0  0  0  0  0  0
   23.8280   44.1960   88.2210 H   0  0  0  0  0  0  0  0  0  0  0  0
   24.9787   42.0679   86.5027 H   0  0  0  0  0  0  0  0  0  0  0  0
   23.7863   41.7971   87.8256 H   0  0  0  0  0  0  0  0  0  0  0  0
   22.6991   41.8659   85.5566 H   0  0  0  0  0  0  0  0  0  0  0  0
   22.1092   43.1710   86.6367 H   0  0  0  0  0  0  0  0  0  0  0  0
   24.1880   43.4390   84.5620 H   0  0  0  0  0  0  0  0  0  0  0  0
   22.6580   44.0230   84.4780 H   0  0  0  0  0  0  0  0  0  0  0  0
   24.2026   45.7992   84.9889 H   0  0  0  0  0  0  0  0  0  0  0  0
   23.0382   45.5200   86.3181 H   0  0  0  0  0  0  0  0  0  0  0  0
   25.8719   44.3128   86.1221 H   0  0  0  0  0  0  0  0  0  0  0  0
   25.3872   45.6619   87.1985 H   0  0  0  0  0  0  0  0  0  0  0  0
   27.1845   38.6535   87.0616 H   0  0  0  0  0  0  0  0  0  0  0  0
   24.7157   38.0610   87.0601 H   0  0  0  0  0  0  0  0  0  0  0  0
   23.1989   38.9720   85.2382 H   0  0  0  0  0  0  0  0  0  0  0  0
   24.1272   40.4970   83.4234 H   0  0  0  0  0  0  0  0  0  0  0  0
   26.5990   41.0823   83.4275 H   0  0  0  0  0  0  0  0  0  0  0  0
   31.8834   37.9963   83.7835 H   0  0  0  0  0  0  0  0  0  0  0  0
   31.8396   35.8560   82.4583 H   0  0  0  0  0  0  0  0  0  0  0  0
  1  2  2  0
  2  3  1  0
  3  4  2  0
  4  5  1  0
  5  6  1  0
  6  7  1  0
  7  8  2  0
  8  9  1  0
  9 10  2  0
 10 11  1  0
 11 12  1  0
 12 13  1  0
 13 14  1  0
 14 15  1  0
 15 16  1  0
 16 17  1  0
 17 18  1  0
 18 19  1  0
 19 20  1  0
 11 21  2  0
 21 22  1  0
 22 23  1  0
 23 24  2  0
 24 25  1  0
 25 26  2  0
 26 27  1  0
 27 28  2  0
  4 29  1  0
 29 30  2  0
 30  1  1  0
 22  5  2  0
 28 23  1  0
 21  7  1  0
 20 15  1  0
  1 31  1  0
  2 32  1  0
  3 33  1  0
  9 34  1  0
 10 35  1  0
 12 36  1  0
 13 37  1  0
 13 38  1  0
 14 39  1  0
 14 40  1  0
 15 41  1  0
 16 42  1  0
 16 43  1  0
 17 44  1  0
 17 45  1  0
 18 46  1  0
 18 47  1  0
 19 48  1  0
 19 49  1  0
 20 50  1  0
 20 51  1  0
 24 52  1  0
 25 53  1  0
 26 54  1  0
 27 55  1  0
 28 56  1  0
 29 57  1  0
 30 58  1  0
M  CHG  2  15   1  18   1
M  END
>  <meeko>  (78) 
{"free_energy": -9.126, "intermolecular_energy": -8.232, "internal_energy": -0.943}

$$$$

     RDKit          3D

 58 62  0  0  0  0  0  0  0  0999 V2000
   21.7530   36.5760   85.9590 C   0  0  0  0  0  0  0  0  0  0  0  0
   22.5030   36.9760   84.7880 C   0  0  0  0  0  0  0  0  0  0  0  0
   23.0660   38.2950   84.7120 C   0  0  0  0  0  0  0  0  0  0  0  0
   22.8740   39.2150   85.7980 C   0  0  0  0  0  0  0  0  0  0  0  0
   23.4860   40.5780   85.6910 C   0  0  0  0  0  0  0  0  0  0  0  0
   22.7470   41.7190   85.9340 O   0  0  0  0  0  0  0  0  0  0  0  0
   23.5980   42.7600   85.7430 C   0  0  0  0  0  0  0  0  0  0  0  0
   23.3090   44.1110   85.8750 N   0  0  0  0  0  0  0  0  0  0  0  0
   24.2370   45.0780   85.6610 C   0  0  0  0  0  0  0  0  0  0  0  0
   25.5680   44.7310   85.3120 C   0  0  0  0  0  0  0  0  0  0  0  0
   25.9240   43.3420   85.1640 C   0  0  0  0  0  0  0  0  0  0  0  0
   27.2060   42.9610   84.8260 N   0  0  0  0  0  0  0  0  0  0  0  0
   28.2470   42.7060   85.8130 C   0  0  0  0  0  0  0  0  0  0  0  0
   28.6700   43.9700   86.5690 C   0  0  0  0  0  0  0  0  0  0  0  0
   28.4320   43.9390   88.0340 N   0  0  0  0  0  4  0  0  0  0  0  0
   27.7600   42.6400   88.3100 C   0  0  0  0  0  0  0  0  0  0  0  0
   27.4590   42.5080   89.8150 C   0  0  0  0  0  0  0  0  0  0  0  0
   26.6240   43.6670   90.2490 N   0  0  0  0  0  4  0  0  0  0  0  0
   27.2970   44.9740   89.9670 C   0  0  0  0  0  0  0  0  0  0  0  0
   27.5580   45.0720   88.4490 C   0  0  0  0  0  0  0  0  0  0  0  0
   24.8970   42.3210   85.3920 C   0  0  0  0  0  0  0  0  0  0  0  0
   24.9160   40.9310   85.3310 C   0  0  0  0  0  0  0  0  0  0  0  0
   26.0820   40.0790   84.9880 C   0  0  0  0  0  0  0  0  0  0  0  0
   26.8320   39.4240   86.0240 C   0  0  0  0  0  0  0  0  0  0  0  0
   27.9640   38.6190   85.6750 C   0  0  0  0  0  0  0  0  0  0  0  0
   28.3410   38.4760   84.2870 C   0  0  0  0  0  0  0  0  0  0  0  0
   27.5860   39.1300   83.2420 C   0  0  0  0  0  0  0  0  0  0  0  0
   26.4560   39.9360   83.5950 C   0  0  0  0  0  0  0  0  0  0  0  0
   22.1120   38.7910   86.9610 C   0  0  0  0  0  0  0  0  0  0  0  0
   21.5540   37.4860   87.0460 C   0  0  0  0  0  0  0  0  0  0  0  0
   21.3312   35.5616   86.0145 H   0  0  0  0  0  0  0  0  0  0  0  0
   22.6419   36.2699   83.9561 H   0  0  0  0  0  0  0  0  0  0  0  0
   23.6419   38.5994   83.8256 H   0  0  0  0  0  0  0  0  0  0  0  0
   23.9557   46.1369   85.7587 H   0  0  0  0  0  0  0  0  0  0  0  0
   26.3224   45.5161   85.1556 H   0  0  0  0  0  0  0  0  0  0  0  0
   27.5590   43.7060   84.2600 H   0  0  0  0  0  0  0  0  0  0  0  0
   27.8701   41.9713   86.5397 H   0  0  0  0  0  0  0  0  0  0  0  0
   29.1297   42.3309   85.2744 H   0  0  0  0  0  0  0  0  0  0  0  0
   29.7466   44.1222   86.4022 H   0  0  0  0  0  0  0  0  0  0  0  0
   28.0451   44.7851   86.1751 H   0  0  0  0  0  0  0  0  0  0  0  0
   29.2870   44.0290   88.5430 H   0  0  0  0  0  0  0  0  0  0  0  0
   26.8175   42.5908   87.7449 H   0  0  0  0  0  0  0  0  0  0  0  0
   28.4244   41.8189   88.0027 H   0  0  0  0  0  0  0  0  0  0  0  0
   26.9137   41.5709   90.0009 H   0  0  0  0  0  0  0  0  0  0  0  0
   28.4015   42.4969   90.3821 H   0  0  0  0  0  0  0  0  0  0  0  0
   25.7560   43.6400   89.7540 H   0  0  0  0  0  0  0  0  0  0  0  0
   26.4620   43.5950   91.2330 H   0  0  0  0  0  0  0  0  0  0  0  0
   26.6475   45.8024   90.2862 H   0  0  0  0  0  0  0  0  0  0  0  0
   28.2471   45.0357   90.5179 H   0  0  0  0  0  0  0  0  0  0  0  0
   26.6027   45.0191   87.9062 H   0  0  0  0  0  0  0  0  0  0  0  0
   28.0519   46.0272   88.2173 H   0  0  0  0  0  0  0  0  0  0  0  0
   26.5387   39.5401   87.0778 H   0  0  0  0  0  0  0  0  0  0  0  0
   28.5441   38.1117   86.4600 H   0  0  0  0  0  0  0  0  0  0  0  0
   29.2140   37.8614   84.0223 H   0  0  0  0  0  0  0  0  0  0  0  0
   27.8761   39.0100   82.1877 H   0  0  0  0  0  0  0  0  0  0  0  0
   25.8743   40.4445   82.8121 H   0  0  0  0  0  0  0  0  0  0  0  0
   21.9639   39.4949   87.7932 H   0  0  0  0  0  0  0  0  0  0  0  0
   20.9788   37.1806   87.9325 H   0  0  0  0  0  0  0  0  0  0  0  0
  1  2  2  0
  2  3  1  0
  3  4  2  0
  4  5  1  0
  5  6  1  0
  6  7  1  0
  7  8  2  0
  8  9  1  0
  9 10  2  0
 10 11  1  0
 11 12  1  0
 12 13  1  0
 13 14  1  0
 14 15  1  0
 15 16  1  0
 16 17  1  0
 17 18  1  0
 18 19  1  0
 19 20  1  0
 11 21  2  0
 21 22  1  0
 22 23  1  0
 23 24  2  0
 24 25  1  0
 25 26  2  0
 26 27  1  0
 27 28  2  0
  4 29  1  0
 29 30  2  0
 30  1  1  0
 22  5  2  0
 28 23  1  0
 21  7  1  0
 20 15  1  0
  1 31  1  0
  2 32  1  0
  3 33  1  0
  9 34  1  0
 10 35  1  0
 12 36  1  0
 13 37  1  0
 13 38  1  0
 14 39  1  0
 14 40  1  0
 15 41  1  0
 16 42  1  0
 16 43  1  0
 17 44  1  0
 17 45  1  0
 18 46  1  0
 18 47  1  0
 19 48  1  0
 19 49  1  0
 20 50  1  0
 20 51  1  0
 24 52  1  0
 25 53  1  0
 26 54  1  0
 27 55  1  0
 28 56  1  0
 29 57  1  0
 30 58  1  0
M  CHG  2  15   1  18   1
M  END
>  <meeko>  (79) 
{"free_energy": -9.113, "intermolecular_energy": -7.559, "internal_energy": -1.599}

$$$$

     RDKit          3D

 58 62  0  0  0  0  0  0  0  0999 V2000
   30.2690   42.8770   86.4210 C   0  0  0  0  0  0  0  0  0  0  0  0
   29.8080   41.7370   85.6600 C   0  0  0  0  0  0  0  0  0  0  0  0
   28.4160   41.6090   85.3270 C   0  0  0  0  0  0  0  0  0  0  0  0
   27.4860   42.6140   85.7620 C   0  0  0  0  0  0  0  0  0  0  0  0
   26.0450   42.4570   85.3860 C   0  0  0  0  0  0  0  0  0  0  0  0
   25.6550   42.3440   84.0650 O   0  0  0  0  0  0  0  0  0  0  0  0
   24.3030   42.2240   84.0870 C   0  0  0  0  0  0  0  0  0  0  0  0
   23.4580   42.0820   82.9950 N   0  0  0  0  0  0  0  0  0  0  0  0
   22.1120   41.9680   83.1250 C   0  0  0  0  0  0  0  0  0  0  0  0
   21.5130   41.9660   84.4110 C   0  0  0  0  0  0  0  0  0  0  0  0
   22.3430   42.1090   85.5820 C   0  0  0  0  0  0  0  0  0  0  0  0
   21.8020   42.1120   86.8500 N   0  0  0  0  0  0  0  0  0  0  0  0
   21.2590   40.9200   87.4880 C   0  0  0  0  0  0  0  0  0  0  0  0
   19.9360   40.4650   86.8650 C   0  0  0  0  0  0  0  0  0  0  0  0
   19.8270   39.0070   86.6100 N   0  0  0  0  0  4  0  0  0  0  0  0
   21.1060   38.4130   87.0840 C   0  0  0  0  0  0  0  0  0  0  0  0
   21.1010   36.8900   86.8570 C   0  0  0  0  0  0  0  0  0  0  0  0
   20.8650   36.6120   85.4100 N   0  0  0  0  0  4  0  0  0  0  0  0
   19.5800   37.2130   84.9310 C   0  0  0  0  0  0  0  0  0  0  0  0
   19.6400   38.7390   85.1560 C   0  0  0  0  0  0  0  0  0  0  0  0
   23.7930   42.2400   85.4070 C   0  0  0  0  0  0  0  0  0  0  0  0
   24.8430   42.3900   86.3080 C   0  0  0  0  0  0  0  0  0  0  0  0
   24.7340   42.4630   87.7860 C   0  0  0  0  0  0  0  0  0  0  0  0
   24.8940   41.2790   88.5850 C   0  0  0  0  0  0  0  0  0  0  0  0
   24.7690   41.3660   90.0090 C   0  0  0  0  0  0  0  0  0  0  0  0
   24.4820   42.6400   90.6270 C   0  0  0  0  0  0  0  0  0  0  0  0
   24.3240   43.8340   89.8270 C   0  0  0  0  0  0  0  0  0  0  0  0
   24.4490   43.7430   88.4030 C   0  0  0  0  0  0  0  0  0  0  0  0
   27.9740   43.7480   86.5300 C   0  0  0  0  0  0  0  0  0  0  0  0
   29.3500   43.8830   86.8610 C   0  0  0  0  0  0  0  0  0  0  0  0
   31.3375   42.9724   86.6645 H   0  0  0  0  0  0  0  0  0  0  0  0
   30.5236   40.9671   85.3357 H   0  0  0  0  0  0  0  0  0  0  0  0
   28.0644   40.7462   84.7422 H   0  0  0  0  0  0  0  0  0  0  0  0
   21.4818   41.8766   82.2281 H   0  0  0  0  0  0  0  0  0  0  0  0
   20.4234   41.8562   84.5144 H   0  0  0  0  0  0  0  0  0  0  0  0
   21.0380   42.7560   86.8060 H   0  0  0  0  0  0  0  0  0  0  0  0
   21.9916   40.1051   87.3919 H   0  0  0  0  0  0  0  0  0  0  0  0
   21.0615   41.1684   88.5412 H   0  0  0  0  0  0  0  0  0  0  0  0
   19.1219   40.7533   87.5463 H   0  0  0  0  0  0  0  0  0  0  0  0
   19.8780   40.9526   85.8807 H   0  0  0  0  0  0  0  0  0  0  0  0
   19.0390   38.6130   87.0830 H   0  0  0  0  0  0  0  0  0  0  0  0
   21.9428   38.8606   86.5277 H   0  0  0  0  0  0  0  0  0  0  0  0
   21.2191   38.6154   88.1593 H   0  0  0  0  0  0  0  0  0  0  0  0
   22.0715   36.4695   87.1592 H   0  0  0  0  0  0  0  0  0  0  0  0
   20.3032   36.4288   87.4576 H   0  0  0  0  0  0  0  0  0  0  0  0
   21.6180   37.0030   84.8810 H   0  0  0  0  0  0  0  0  0  0  0  0
   20.8260   35.6220   85.2740 H   0  0  0  0  0  0  0  0  0  0  0  0
   19.4475   37.0007   83.8599 H   0  0  0  0  0  0  0  0  0  0  0  0
   18.7327   36.7830   85.4853 H   0  0  0  0  0  0  0  0  0  0  0  0
   20.4837   39.1624   84.5913 H   0  0  0  0  0  0  0  0  0  0  0  0
   18.7050   39.2033   84.8093 H   0  0  0  0  0  0  0  0  0  0  0  0
   25.1109   40.3128   88.1061 H   0  0  0  0  0  0  0  0  0  0  0  0
   24.8910   40.4662   90.6299 H   0  0  0  0  0  0  0  0  0  0  0  0
   24.3824   42.7024   91.7207 H   0  0  0  0  0  0  0  0  0  0  0  0
   24.1103   44.8008   90.3063 H   0  0  0  0  0  0  0  0  0  0  0  0
   24.3291   44.6415   87.7799 H   0  0  0  0  0  0  0  0  0  0  0  0
   27.2628   44.5186   86.8623 H   0  0  0  0  0  0  0  0  0  0  0  0
   29.7027   44.7457   87.4453 H   0  0  0  0  0  0  0  0  0  0  0  0
  1  2  2  0
  2  3  1  0
  3  4  2  0
  4  5  1  0
  5  6  1  0
  6  7  1  0
  7  8  2  0
  8  9  1  0
  9 10  2  0
 10 11  1  0
 11 12  1  0
 12 13  1  0
 13 14  1  0
 14 15  1  0
 15 16  1  0
 16 17  1  0
 17 18  1  0
 18 19  1  0
 19 20  1  0
 11 21  2  0
 21 22  1  0
 22 23  1  0
 23 24  2  0
 24 25  1  0
 25 26  2  0
 26 27  1  0
 27 28  2  0
  4 29  1  0
 29 30  2  0
 30  1  1  0
 22  5  2  0
 28 23  1  0
 21  7  1  0
 20 15  1  0
  1 31  1  0
  2 32  1  0
  3 33  1  0
  9 34  1  0
 10 35  1  0
 12 36  1  0
 13 37  1  0
 13 38  1  0
 14 39  1  0
 14 40  1  0
 15 41  1  0
 16 42  1  0
 16 43  1  0
 17 44  1  0
 17 45  1  0
 18 46  1  0
 18 47  1  0
 19 48  1  0
 19 49  1  0
 20 50  1  0
 20 51  1  0
 24 52  1  0
 25 53  1  0
 26 54  1  0
 27 55  1  0
 28 56  1  0
 29 57  1  0
 30 58  1  0
M  CHG  2  15   1  18   1
M  END
>  <meeko>  (80) 
{"free_energy": -9.112, "intermolecular_energy": -7.64, "internal_energy": -1.516}

$$$$

     RDKit          3D

 58 62  0  0  0  0  0  0  0  0999 V2000
   29.7200   36.0700   82.3570 C   0  0  0  0  0  0  0  0  0  0  0  0
   30.6090   36.9150   83.1250 C   0  0  0  0  0  0  0  0  0  0  0  0
   30.0710   37.9430   83.9720 C   0  0  0  0  0  0  0  0  0  0  0  0
   28.6490   38.1330   84.0440 C   0  0  0  0  0  0  0  0  0  0  0  0
   28.1210   39.2060   84.9470 C   0  0  0  0  0  0  0  0  0  0  0  0
   28.9550   40.1660   85.4840 O   0  0  0  0  0  0  0  0  0  0  0  0
   28.1610   40.9620   86.2450 C   0  0  0  0  0  0  0  0  0  0  0  0
   28.5510   42.0710   86.9850 N   0  0  0  0  0  0  0  0  0  0  0  0
   27.6730   42.8030   87.7160 C   0  0  0  0  0  0  0  0  0  0  0  0
   26.2950   42.4680   87.7310 C   0  0  0  0  0  0  0  0  0  0  0  0
   25.8340   41.3270   86.9790 C   0  0  0  0  0  0  0  0  0  0  0  0
   24.5030   40.9650   86.9660 N   0  0  0  0  0  0  0  0  0  0  0  0
   23.4240   41.9110   86.7120 C   0  0  0  0  0  0  0  0  0  0  0  0
   22.2030   41.6690   87.6050 C   0  0  0  0  0  0  0  0  0  0  0  0
   21.6600   42.8790   88.2730 N   0  0  0  0  0  4  0  0  0  0  0  0
   22.8430   43.6820   88.6860 C   0  0  0  0  0  0  0  0  0  0  0  0
   22.3890   44.9670   89.4020 C   0  0  0  0  0  0  0  0  0  0  0  0
   21.5350   44.5990   90.5700 N   0  0  0  0  0  4  0  0  0  0  0  0
   20.3460   43.7880   90.1560 C   0  0  0  0  0  0  0  0  0  0  0  0
   20.8490   42.5020   89.4650 C   0  0  0  0  0  0  0  0  0  0  0  0
   26.8080   40.5490   86.2070 C   0  0  0  0  0  0  0  0  0  0  0  0
   26.6900   39.4230   85.3980 C   0  0  0  0  0  0  0  0  0  0  0  0
   25.4420   38.6760   85.1020 C   0  0  0  0  0  0  0  0  0  0  0  0
   25.2900   37.3150   85.5380 C   0  0  0  0  0  0  0  0  0  0  0  0
   24.0850   36.6050   85.2280 C   0  0  0  0  0  0  0  0  0  0  0  0
   23.0390   37.2620   84.4810 C   0  0  0  0  0  0  0  0  0  0  0  0
   23.1870   38.6320   84.0430 C   0  0  0  0  0  0  0  0  0  0  0  0
   24.3930   39.3380   84.3530 C   0  0  0  0  0  0  0  0  0  0  0  0
   27.7770   37.2750   83.2570 C   0  0  0  0  0  0  0  0  0  0  0  0
   28.3020   36.2530   82.4200 C   0  0  0  0  0  0  0  0  0  0  0  0
   30.1386   35.2786   81.7180 H   0  0  0  0  0  0  0  0  0  0  0  0
   31.6975   36.7700   83.0602 H   0  0  0  0  0  0  0  0  0  0  0  0
   30.7446   38.5815   84.5625 H   0  0  0  0  0  0  0  0  0  0  0  0
   28.0325   43.6623   88.3011 H   0  0  0  0  0  0  0  0  0  0  0  0
   25.5835   43.0736   88.3116 H   0  0  0  0  0  0  0  0  0  0  0  0
   24.3220   40.6010   87.8790 H   0  0  0  0  0  0  0  0  0  0  0  0
   23.7980   42.9290   86.8956 H   0  0  0  0  0  0  0  0  0  0  0  0
   23.1039   41.7773   85.6681 H   0  0  0  0  0  0  0  0  0  0  0  0
   21.4058   41.2372   86.9821 H   0  0  0  0  0  0  0  0  0  0  0  0
   22.5410   41.0006   88.4106 H   0  0  0  0  0  0  0  0  0  0  0  0
   21.0590   43.3930   87.6620 H   0  0  0  0  0  0  0  0  0  0  0  0
   23.4662   43.0862   89.3691 H   0  0  0  0  0  0  0  0  0  0  0  0
   23.4220   43.9548   87.7914 H   0  0  0  0  0  0  0  0  0  0  0  0
   23.2702   45.5252   89.7512 H   0  0  0  0  0  0  0  0  0  0  0  0
   21.8145   45.5961   88.7061 H   0  0  0  0  0  0  0  0  0  0  0  0
   22.0820   44.0620   91.2110 H   0  0  0  0  0  0  0  0  0  0  0  0
   21.2130   45.4380   91.0090 H   0  0  0  0  0  0  0  0  0  0  0  0
   19.7494   43.5246   91.0419 H   0  0  0  0  0  0  0  0  0  0  0  0
   19.7163   44.3668   89.4643 H   0  0  0  0  0  0  0  0  0  0  0  0
   21.4697   41.9249   90.1662 H   0  0  0  0  0  0  0  0  0  0  0  0
   19.9918   41.8874   89.1528 H   0  0  0  0  0  0  0  0  0  0  0  0
   26.0931   36.8221   86.1056 H   0  0  0  0  0  0  0  0  0  0  0  0
   23.9573   35.5634   85.5578 H   0  0  0  0  0  0  0  0  0  0  0  0
   22.1165   36.7128   84.2417 H   0  0  0  0  0  0  0  0  0  0  0  0
   22.3825   39.1258   83.4783 H   0  0  0  0  0  0  0  0  0  0  0  0
   24.5230   40.3795   84.0238 H   0  0  0  0  0  0  0  0  0  0  0  0
   26.6879   37.4201   83.3107 H   0  0  0  0  0  0  0  0  0  0  0  0
   27.6292   35.6131   81.8302 H   0  0  0  0  0  0  0  0  0  0  0  0
  1  2  2  0
  2  3  1  0
  3  4  2  0
  4  5  1  0
  5  6  1  0
  6  7  1  0
  7  8  2  0
  8  9  1  0
  9 10  2  0
 10 11  1  0
 11 12  1  0
 12 13  1  0
 13 14  1  0
 14 15  1  0
 15 16  1  0
 16 17  1  0
 17 18  1  0
 18 19  1  0
 19 20  1  0
 11 21  2  0
 21 22  1  0
 22 23  1  0
 23 24  2  0
 24 25  1  0
 25 26  2  0
 26 27  1  0
 27 28  2  0
  4 29  1  0
 29 30  2  0
 30  1  1  0
 22  5  2  0
 28 23  1  0
 21  7  1  0
 20 15  1  0
  1 31  1  0
  2 32  1  0
  3 33  1  0
  9 34  1  0
 10 35  1  0
 12 36  1  0
 13 37  1  0
 13 38  1  0
 14 39  1  0
 14 40  1  0
 15 41  1  0
 16 42  1  0
 16 43  1  0
 17 44  1  0
 17 45  1  0
 18 46  1  0
 18 47  1  0
 19 48  1  0
 19 49  1  0
 20 50  1  0
 20 51  1  0
 24 52  1  0
 25 53  1  0
 26 54  1  0
 27 55  1  0
 28 56  1  0
 29 57  1  0
 30 58  1  0
M  CHG  2  15   1  18   1
M  END
>  <meeko>  (81) 
{"free_energy": -9.093, "intermolecular_energy": -8.248, "internal_energy": -0.882}

$$$$

     RDKit          3D

 58 62  0  0  0  0  0  0  0  0999 V2000
   19.6220   37.0850   86.9920 C   0  0  0  0  0  0  0  0  0  0  0  0
   20.0130   38.3170   86.3420 C   0  0  0  0  0  0  0  0  0  0  0  0
   21.2230   38.3710   85.5720 C   0  0  0  0  0  0  0  0  0  0  0  0
   22.0460   37.1990   85.4570 C   0  0  0  0  0  0  0  0  0  0  0  0
   23.2960   37.2870   84.6350 C   0  0  0  0  0  0  0  0  0  0  0  0
   23.4320   36.5770   83.4580 O   0  0  0  0  0  0  0  0  0  0  0  0
   24.6670   36.8810   82.9830 C   0  0  0  0  0  0  0  0  0  0  0  0
   25.2550   36.4070   81.8190 N   0  0  0  0  0  0  0  0  0  0  0  0
   26.5030   36.7740   81.4310 C   0  0  0  0  0  0  0  0  0  0  0  0
   27.2540   37.6940   82.2080 C   0  0  0  0  0  0  0  0  0  0  0  0
   26.6910   38.2190   83.4270 C   0  0  0  0  0  0  0  0  0  0  0  0
   27.3880   39.1150   84.2120 N   0  0  0  0  0  0  0  0  0  0  0  0
   28.7500   39.5400   83.9180 C   0  0  0  0  0  0  0  0  0  0  0  0
   29.7980   38.7780   84.7350 C   0  0  0  0  0  0  0  0  0  0  0  0
   30.5580   37.7490   83.9830 N   0  0  0  0  0  4  0  0  0  0  0  0
   31.4730   38.4980   83.0790 C   0  0  0  0  0  0  0  0  0  0  0  0
   32.3110   37.5160   82.2390 C   0  0  0  0  0  0  0  0  0  0  0  0
   31.3940   36.6160   81.4780 N   0  0  0  0  0  4  0  0  0  0  0  0
   30.4710   35.8660   82.3870 C   0  0  0  0  0  0  0  0  0  0  0  0
   29.6370   36.8880   83.1900 C   0  0  0  0  0  0  0  0  0  0  0  0
   25.3450   37.7950   83.8240 C   0  0  0  0  0  0  0  0  0  0  0  0
   24.5390   38.1090   84.9140 C   0  0  0  0  0  0  0  0  0  0  0  0
   24.8810   39.0240   86.0310 C   0  0  0  0  0  0  0  0  0  0  0  0
   24.0160   40.1230   86.3600 C   0  0  0  0  0  0  0  0  0  0  0  0
   24.3720   41.0060   87.4310 C   0  0  0  0  0  0  0  0  0  0  0  0
   25.5960   40.7830   88.1660 C   0  0  0  0  0  0  0  0  0  0  0  0
   26.4670   39.6760   87.8400 C   0  0  0  0  0  0  0  0  0  0  0  0
   26.1080   38.7970   86.7680 C   0  0  0  0  0  0  0  0  0  0  0  0
   21.6350   35.9750   86.1240 C   0  0  0  0  0  0  0  0  0  0  0  0
   20.4360   35.9130   86.8860 C   0  0  0  0  0  0  0  0  0  0  0  0
   18.6891   37.0489   87.5738 H   0  0  0  0  0  0  0  0  0  0  0  0
   19.3823   39.2131   86.4380 H   0  0  0  0  0  0  0  0  0  0  0  0
   21.5188   39.3052   85.0723 H   0  0  0  0  0  0  0  0  0  0  0  0
   26.9345   36.3561   80.5095 H   0  0  0  0  0  0  0  0  0  0  0  0
   28.2580   38.0041   81.8827 H   0  0  0  0  0  0  0  0  0  0  0  0
   27.4360   38.6880   85.1150 H   0  0  0  0  0  0  0  0  0  0  0  0
   28.9476   39.3724   82.8489 H   0  0  0  0  0  0  0  0  0  0  0  0
   28.8304   40.6040   84.1855 H   0  0  0  0  0  0  0  0  0  0  0  0
   30.5170   39.5092   85.1331 H   0  0  0  0  0  0  0  0  0  0  0  0
   29.2431   38.2380   85.5164 H   0  0  0  0  0  0  0  0  0  0  0  0
   31.0620   37.1450   84.6010 H   0  0  0  0  0  0  0  0  0  0  0  0
   30.8791   39.1356   82.4076 H   0  0  0  0  0  0  0  0  0  0  0  0
   32.1485   39.1189   83.6857 H   0  0  0  0  0  0  0  0  0  0  0  0
   32.9419   38.0789   81.5354 H   0  0  0  0  0  0  0  0  0  0  0  0
   32.9524   36.9163   82.9015 H   0  0  0  0  0  0  0  0  0  0  0  0
   30.8460   37.1720   80.8530 H   0  0  0  0  0  0  0  0  0  0  0  0
   31.9430   35.9580   80.9640 H   0  0  0  0  0  0  0  0  0  0  0  0
   29.8021   35.2271   81.7917 H   0  0  0  0  0  0  0  0  0  0  0  0
   31.0510   35.2309   83.0727 H   0  0  0  0  0  0  0  0  0  0  0  0
   29.0528   37.5123   82.4980 H   0  0  0  0  0  0  0  0  0  0  0  0
   28.9497   36.3579   83.8657 H   0  0  0  0  0  0  0  0  0  0  0  0
   23.0870   40.2855   85.7938 H   0  0  0  0  0  0  0  0  0  0  0  0
   23.7165   41.8498   87.6924 H   0  0  0  0  0  0  0  0  0  0  0  0
   25.8688   41.4649   88.9849 H   0  0  0  0  0  0  0  0  0  0  0  0
   27.3941   39.5110   88.4085 H   0  0  0  0  0  0  0  0  0  0  0  0
   26.7615   37.9522   86.5048 H   0  0  0  0  0  0  0  0  0  0  0  0
   22.2649   35.0773   86.0376 H   0  0  0  0  0  0  0  0  0  0  0  0
   20.1391   34.9792   87.3859 H   0  0  0  0  0  0  0  0  0  0  0  0
  1  2  2  0
  2  3  1  0
  3  4  2  0
  4  5  1  0
  5  6  1  0
  6  7  1  0
  7  8  2  0
  8  9  1  0
  9 10  2  0
 10 11  1  0
 11 12  1  0
 12 13  1  0
 13 14  1  0
 14 15  1  0
 15 16  1  0
 16 17  1  0
 17 18  1  0
 18 19  1  0
 19 20  1  0
 11 21  2  0
 21 22  1  0
 22 23  1  0
 23 24  2  0
 24 25  1  0
 25 26  2  0
 26 27  1  0
 27 28  2  0
  4 29  1  0
 29 30  2  0
 30  1  1  0
 22  5  2  0
 28 23  1  0
 21  7  1  0
 20 15  1  0
  1 31  1  0
  2 32  1  0
  3 33  1  0
  9 34  1  0
 10 35  1  0
 12 36  1  0
 13 37  1  0
 13 38  1  0
 14 39  1  0
 14 40  1  0
 15 41  1  0
 16 42  1  0
 16 43  1  0
 17 44  1  0
 17 45  1  0
 18 46  1  0
 18 47  1  0
 19 48  1  0
 19 49  1  0
 20 50  1  0
 20 51  1  0
 24 52  1  0
 25 53  1  0
 26 54  1  0
 27 55  1  0
 28 56  1  0
 29 57  1  0
 30 58  1  0
M  CHG  2  15   1  18   1
M  END
>  <meeko>  (82) 
{"free_energy": -9.046, "intermolecular_energy": -9.64, "internal_energy": 0.573}

$$$$

     RDKit          3D

 58 62  0  0  0  0  0  0  0  0999 V2000
   30.7860   35.7220   82.6350 C   0  0  0  0  0  0  0  0  0  0  0  0
   31.8890   36.4910   83.1710 C   0  0  0  0  0  0  0  0  0  0  0  0
   31.6410   37.7460   83.8230 C   0  0  0  0  0  0  0  0  0  0  0  0
   30.2950   38.2370   83.9330 C   0  0  0  0  0  0  0  0  0  0  0  0
   30.0710   39.5430   84.6320 C   0  0  0  0  0  0  0  0  0  0  0  0
   31.1190   40.3980   84.9090 O   0  0  0  0  0  0  0  0  0  0  0  0
   30.5690   41.4660   85.5420 C   0  0  0  0  0  0  0  0  0  0  0  0
   31.2310   42.5910   86.0150 N   0  0  0  0  0  0  0  0  0  0  0  0
   30.5850   43.6090   86.6370 C   0  0  0  0  0  0  0  0  0  0  0  0
   29.1770   43.5670   86.8080 C   0  0  0  0  0  0  0  0  0  0  0  0
   28.4380   42.4230   86.3340 C   0  0  0  0  0  0  0  0  0  0  0  0
   27.0680   42.3420   86.4800 N   0  0  0  0  0  0  0  0  0  0  0  0
   26.4050   42.3320   87.7770 C   0  0  0  0  0  0  0  0  0  0  0  0
   25.4080   43.4830   87.9420 C   0  0  0  0  0  0  0  0  0  0  0  0
   24.1600   43.1380   88.6670 N   0  0  0  0  0  4  0  0  0  0  0  0
   24.5540   42.1530   89.7110 C   0  0  0  0  0  0  0  0  0  0  0  0
   23.3200   41.7190   90.5240 C   0  0  0  0  0  0  0  0  0  0  0  0
   22.2940   41.1610   89.5940 N   0  0  0  0  0  4  0  0  0  0  0  0
   21.9000   42.1500   88.5420 C   0  0  0  0  0  0  0  0  0  0  0  0
   23.1610   42.5370   87.7390 C   0  0  0  0  0  0  0  0  0  0  0  0
   29.1660   41.3350   85.6750 C   0  0  0  0  0  0  0  0  0  0  0  0
   28.7590   40.1250   85.1200 C   0  0  0  0  0  0  0  0  0  0  0  0
   27.3710   39.6040   85.0630 C   0  0  0  0  0  0  0  0  0  0  0  0
   26.8460   38.8140   86.1430 C   0  0  0  0  0  0  0  0  0  0  0  0
   25.5090   38.3060   86.0620 C   0  0  0  0  0  0  0  0  0  0  0  0
   24.7050   38.5900   84.8960 C   0  0  0  0  0  0  0  0  0  0  0  0
   25.2280   39.3860   83.8080 C   0  0  0  0  0  0  0  0  0  0  0  0
   26.5660   39.8920   83.8930 C   0  0  0  0  0  0  0  0  0  0  0  0
   29.2050   37.4490   83.3820 C   0  0  0  0  0  0  0  0  0  0  0  0
   29.4420   36.2040   82.7380 C   0  0  0  0  0  0  0  0  0  0  0  0
   30.9825   34.7577   82.1437 H   0  0  0  0  0  0  0  0  0  0  0  0
   32.9181   36.1136   83.0787 H   0  0  0  0  0  0  0  0  0  0  0  0
   32.4774   38.3288   84.2363 H   0  0  0  0  0  0  0  0  0  0  0  0
   31.1559   44.4718   87.0108 H   0  0  0  0  0  0  0  0  0  0  0  0
   28.6532   44.4007   87.2984 H   0  0  0  0  0  0  0  0  0  0  0  0
   26.8100   41.4780   86.0470 H   0  0  0  0  0  0  0  0  0  0  0  0
   25.8648   41.3803   87.8884 H   0  0  0  0  0  0  0  0  0  0  0  0
   27.1812   42.4528   88.5470 H   0  0  0  0  0  0  0  0  0  0  0  0
   25.9098   44.2916   88.4937 H   0  0  0  0  0  0  0  0  0  0  0  0
   25.1014   43.7698   86.9253 H   0  0  0  0  0  0  0  0  0  0  0  0
   23.7350   43.9500   89.0660 H   0  0  0  0  0  0  0  0  0  0  0  0
   25.0002   41.2708   89.2286 H   0  0  0  0  0  0  0  0  0  0  0  0
   25.2845   42.6198   90.3881 H   0  0  0  0  0  0  0  0  0  0  0  0
   23.6119   40.9502   91.2546 H   0  0  0  0  0  0  0  0  0  0  0  0
   22.9040   42.5863   91.0576 H   0  0  0  0  0  0  0  0  0  0  0  0
   22.6730   40.3510   89.1470 H   0  0  0  0  0  0  0  0  0  0  0  0
   21.4810   40.9150   90.1230 H   0  0  0  0  0  0  0  0  0  0  0  0
   21.1551   41.6998   87.8694 H   0  0  0  0  0  0  0  0  0  0  0  0
   21.4609   43.0437   89.0094 H   0  0  0  0  0  0  0  0  0  0  0  0
   23.5882   41.6396   87.2677 H   0  0  0  0  0  0  0  0  0  0  0  0
   22.8957   43.2633   86.9566 H   0  0  0  0  0  0  0  0  0  0  0  0
   27.4667   38.6009   87.0258 H   0  0  0  0  0  0  0  0  0  0  0  0
   25.0965   37.7024   86.8839 H   0  0  0  0  0  0  0  0  0  0  0  0
   23.6802   38.1951   84.8349 H   0  0  0  0  0  0  0  0  0  0  0  0
   24.6065   39.6005   82.9261 H   0  0  0  0  0  0  0  0  0  0  0  0
   26.9805   40.4969   83.0730 H   0  0  0  0  0  0  0  0  0  0  0  0
   28.1743   37.8242   83.4651 H   0  0  0  0  0  0  0  0  0  0  0  0
   28.6059   35.6203   82.3254 H   0  0  0  0  0  0  0  0  0  0  0  0
  1  2  2  0
  2  3  1  0
  3  4  2  0
  4  5  1  0
  5  6  1  0
  6  7  1  0
  7  8  2  0
  8  9  1  0
  9 10  2  0
 10 11  1  0
 11 12  1  0
 12 13  1  0
 13 14  1  0
 14 15  1  0
 15 16  1  0
 16 17  1  0
 17 18  1  0
 18 19  1  0
 19 20  1  0
 11 21  2  0
 21 22  1  0
 22 23  1  0
 23 24  2  0
 24 25  1  0
 25 26  2  0
 26 27  1  0
 27 28  2  0
  4 29  1  0
 29 30  2  0
 30  1  1  0
 22  5  2  0
 28 23  1  0
 21  7  1  0
 20 15  1  0
  1 31  1  0
  2 32  1  0
  3 33  1  0
  9 34  1  0
 10 35  1  0
 12 36  1  0
 13 37  1  0
 13 38  1  0
 14 39  1  0
 14 40  1  0
 15 41  1  0
 16 42  1  0
 16 43  1  0
 17 44  1  0
 17 45  1  0
 18 46  1  0
 18 47  1  0
 19 48  1  0
 19 49  1  0
 20 50  1  0
 20 51  1  0
 24 52  1  0
 25 53  1  0
 26 54  1  0
 27 55  1  0
 28 56  1  0
 29 57  1  0
 30 58  1  0
M  CHG  2  15   1  18   1
M  END
>  <meeko>  (83) 
{"free_energy": -9.044, "intermolecular_energy": -7.622, "internal_energy": -1.442}

$$$$

     RDKit          3D

 58 62  0  0  0  0  0  0  0  0999 V2000
   28.6360   44.0430   90.5250 C   0  0  0  0  0  0  0  0  0  0  0  0
   27.7600   42.8950   90.6180 C   0  0  0  0  0  0  0  0  0  0  0  0
   26.8750   42.5760   89.5330 C   0  0  0  0  0  0  0  0  0  0  0  0
   26.8580   43.4070   88.3610 C   0  0  0  0  0  0  0  0  0  0  0  0
   25.9320   43.0370   87.2430 C   0  0  0  0  0  0  0  0  0  0  0  0
   26.3890   42.9020   85.9470 O   0  0  0  0  0  0  0  0  0  0  0  0
   25.3020   42.5720   85.2030 C   0  0  0  0  0  0  0  0  0  0  0  0
   25.2660   42.3300   83.8370 N   0  0  0  0  0  0  0  0  0  0  0  0
   24.1200   42.0050   83.1850 C   0  0  0  0  0  0  0  0  0  0  0  0
   22.9010   41.8750   83.8980 C   0  0  0  0  0  0  0  0  0  0  0  0
   22.8810   42.1130   85.3200 C   0  0  0  0  0  0  0  0  0  0  0  0
   21.7170   41.9980   86.0520 N   0  0  0  0  0  0  0  0  0  0  0  0
   21.2250   40.7280   86.5700 C   0  0  0  0  0  0  0  0  0  0  0  0
   19.8570   40.3450   85.9980 C   0  0  0  0  0  0  0  0  0  0  0  0
   19.7240   38.9280   85.5760 N   0  0  0  0  0  4  0  0  0  0  0  0
   20.4360   38.1260   86.6080 C   0  0  0  0  0  0  0  0  0  0  0  0
   20.3650   36.6280   86.2600 C   0  0  0  0  0  0  0  0  0  0  0  0
   20.9400   36.4150   84.8990 N   0  0  0  0  0  4  0  0  0  0  0  0
   20.2260   37.2240   83.8600 C   0  0  0  0  0  0  0  0  0  0  0  0
   20.3440   38.7160   84.2380 C   0  0  0  0  0  0  0  0  0  0  0  0
   24.1320   42.4730   85.9940 C   0  0  0  0  0  0  0  0  0  0  0  0
   24.4440   42.7600   87.3190 C   0  0  0  0  0  0  0  0  0  0  0  0
   23.4990   42.7740   88.4640 C   0  0  0  0  0  0  0  0  0  0  0  0
   23.3530   41.6140   89.3000 C   0  0  0  0  0  0  0  0  0  0  0  0
   22.4240   41.6410   90.3900 C   0  0  0  0  0  0  0  0  0  0  0  0
   21.6430   42.8310   90.6360 C   0  0  0  0  0  0  0  0  0  0  0  0
   21.7900   44.0020   89.8000 C   0  0  0  0  0  0  0  0  0  0  0  0
   22.7190   43.9700   88.7100 C   0  0  0  0  0  0  0  0  0  0  0  0
   27.7430   44.5580   88.2940 C   0  0  0  0  0  0  0  0  0  0  0  0
   28.6250   44.8780   89.3630 C   0  0  0  0  0  0  0  0  0  0  0  0
   29.3175   44.2762   91.3563 H   0  0  0  0  0  0  0  0  0  0  0  0
   27.7720   42.2662   91.5205 H   0  0  0  0  0  0  0  0  0  0  0  0
   26.2133   41.6997   89.5988 H   0  0  0  0  0  0  0  0  0  0  0  0
   24.1373   41.8416   82.0973 H   0  0  0  0  0  0  0  0  0  0  0  0
   21.9776   41.5947   83.3701 H   0  0  0  0  0  0  0  0  0  0  0  0
   20.9940   42.3310   85.4470 H   0  0  0  0  0  0  0  0  0  0  0  0
   21.9473   39.9395   86.3120 H   0  0  0  0  0  0  0  0  0  0  0  0
   21.1109   40.8357   87.6587 H   0  0  0  0  0  0  0  0  0  0  0  0
   19.0979   40.5434   86.7689 H   0  0  0  0  0  0  0  0  0  0  0  0
   19.7262   40.9487   85.0878 H   0  0  0  0  0  0  0  0  0  0  0  0
   18.7640   38.6600   85.4980 H   0  0  0  0  0  0  0  0  0  0  0  0
   21.4895   38.4399   86.6491 H   0  0  0  0  0  0  0  0  0  0  0  0
   19.9566   38.2907   87.5842 H   0  0  0  0  0  0  0  0  0  0  0  0
   20.9414   36.0507   86.9979 H   0  0  0  0  0  0  0  0  0  0  0  0
   19.3174   36.2930   86.2763 H   0  0  0  0  0  0  0  0  0  0  0  0
   21.9020   36.6860   84.9110 H   0  0  0  0  0  0  0  0  0  0  0  0
   20.8580   35.4460   84.6630 H   0  0  0  0  0  0  0  0  0  0  0  0
   20.6855   37.0528   82.8753 H   0  0  0  0  0  0  0  0  0  0  0  0
   19.1674   36.9287   83.8127 H   0  0  0  0  0  0  0  0  0  0  0  0
   21.4048   39.0047   84.2732 H   0  0  0  0  0  0  0  0  0  0  0  0
   19.8270   39.3316   83.4871 H   0  0  0  0  0  0  0  0  0  0  0  0
   23.9507   40.7115   89.1041 H   0  0  0  0  0  0  0  0  0  0  0  0
   22.3058   40.7593   91.0370 H   0  0  0  0  0  0  0  0  0  0  0  0
   20.9266   42.8468   91.4706 H   0  0  0  0  0  0  0  0  0  0  0  0
   21.1958   44.9061   89.9987 H   0  0  0  0  0  0  0  0  0  0  0  0
   22.8398   44.8506   88.0619 H   0  0  0  0  0  0  0  0  0  0  0  0
   27.7304   45.1952   87.3974 H   0  0  0  0  0  0  0  0  0  0  0  0
   29.2880   45.7533   89.2975 H   0  0  0  0  0  0  0  0  0  0  0  0
  1  2  2  0
  2  3  1  0
  3  4  2  0
  4  5  1  0
  5  6  1  0
  6  7  1  0
  7  8  2  0
  8  9  1  0
  9 10  2  0
 10 11  1  0
 11 12  1  0
 12 13  1  0
 13 14  1  0
 14 15  1  0
 15 16  1  0
 16 17  1  0
 17 18  1  0
 18 19  1  0
 19 20  1  0
 11 21  2  0
 21 22  1  0
 22 23  1  0
 23 24  2  0
 24 25  1  0
 25 26  2  0
 26 27  1  0
 27 28  2  0
  4 29  1  0
 29 30  2  0
 30  1  1  0
 22  5  2  0
 28 23  1  0
 21  7  1  0
 20 15  1  0
  1 31  1  0
  2 32  1  0
  3 33  1  0
  9 34  1  0
 10 35  1  0
 12 36  1  0
 13 37  1  0
 13 38  1  0
 14 39  1  0
 14 40  1  0
 15 41  1  0
 16 42  1  0
 16 43  1  0
 17 44  1  0
 17 45  1  0
 18 46  1  0
 18 47  1  0
 19 48  1  0
 19 49  1  0
 20 50  1  0
 20 51  1  0
 24 52  1  0
 25 53  1  0
 26 54  1  0
 27 55  1  0
 28 56  1  0
 29 57  1  0
 30 58  1  0
M  CHG  2  15   1  18   1
M  END
>  <meeko>  (84) 
{"free_energy": -8.941, "intermolecular_energy": -7.365, "internal_energy": -1.56}

$$$$

     RDKit          3D

 58 62  0  0  0  0  0  0  0  0999 V2000
   25.0140   45.0240   90.5650 C   0  0  0  0  0  0  0  0  0  0  0  0
   23.5720   44.9360   90.6350 C   0  0  0  0  0  0  0  0  0  0  0  0
   22.8680   43.9900   89.8150 C   0  0  0  0  0  0  0  0  0  0  0  0
   23.6030   43.1400   88.9190 C   0  0  0  0  0  0  0  0  0  0  0  0
   22.8380   42.1560   88.0880 C   0  0  0  0  0  0  0  0  0  0  0  0
   21.4600   42.0900   88.1390 O   0  0  0  0  0  0  0  0  0  0  0  0
   21.1040   41.1020   87.2790 C   0  0  0  0  0  0  0  0  0  0  0  0
   19.8170   40.6680   86.9900 N   0  0  0  0  0  0  0  0  0  0  0  0
   19.5670   39.6660   86.1090 C   0  0  0  0  0  0  0  0  0  0  0  0
   20.6340   39.0320   85.4220 C   0  0  0  0  0  0  0  0  0  0  0  0
   21.9910   39.4440   85.6820 C   0  0  0  0  0  0  0  0  0  0  0  0
   23.0570   38.8540   85.0360 N   0  0  0  0  0  0  0  0  0  0  0  0
   23.4690   37.4770   85.2750 C   0  0  0  0  0  0  0  0  0  0  0  0
   23.6000   36.6650   83.9830 C   0  0  0  0  0  0  0  0  0  0  0  0
   24.8330   36.9230   83.1970 N   0  0  0  0  0  4  0  0  0  0  0  0
   25.5510   35.6210   83.1270 C   0  0  0  0  0  0  0  0  0  0  0  0
   26.8610   35.7800   82.3320 C   0  0  0  0  0  0  0  0  0  0  0  0
   27.6950   36.8400   82.9720 N   0  0  0  0  0  4  0  0  0  0  0  0
   26.9720   38.1480   83.0460 C   0  0  0  0  0  0  0  0  0  0  0  0
   25.6810   37.9460   83.8700 C   0  0  0  0  0  0  0  0  0  0  0  0
   22.2290   40.5220   86.6470 C   0  0  0  0  0  0  0  0  0  0  0  0
   23.3890   41.1360   87.1100 C   0  0  0  0  0  0  0  0  0  0  0  0
   24.7800   40.8150   86.7040 C   0  0  0  0  0  0  0  0  0  0  0  0
   25.5370   39.8290   87.4240 C   0  0  0  0  0  0  0  0  0  0  0  0
   26.8840   39.5450   87.0280 C   0  0  0  0  0  0  0  0  0  0  0  0
   27.4670   40.2540   85.9120 C   0  0  0  0  0  0  0  0  0  0  0  0
   26.7070   41.2440   85.1830 C   0  0  0  0  0  0  0  0  0  0  0  0
   25.3610   41.5270   85.5830 C   0  0  0  0  0  0  0  0  0  0  0  0
   25.0510   43.2510   88.8630 C   0  0  0  0  0  0  0  0  0  0  0  0
   25.7550   44.1830   89.6750 C   0  0  0  0  0  0  0  0  0  0  0  0
   25.5468   45.7449   91.2025 H   0  0  0  0  0  0  0  0  0  0  0  0
   23.0139   45.5943   91.3170 H   0  0  0  0  0  0  0  0  0  0  0  0
   21.7720   43.9164   89.8725 H   0  0  0  0  0  0  0  0  0  0  0  0
   18.5311   39.3438   85.9268 H   0  0  0  0  0  0  0  0  0  0  0  0
   20.4275   38.2317   84.6961 H   0  0  0  0  0  0  0  0  0  0  0  0
   23.8510   39.4100   85.2800 H   0  0  0  0  0  0  0  0  0  0  0  0
   24.4433   37.4850   85.7856 H   0  0  0  0  0  0  0  0  0  0  0  0
   22.6910   36.9999   85.8891 H   0  0  0  0  0  0  0  0  0  0  0  0
   23.5827   35.5977   84.2485 H   0  0  0  0  0  0  0  0  0  0  0  0
   22.7598   36.9719   83.3428 H   0  0  0  0  0  0  0  0  0  0  0  0
   24.6170   37.2760   82.2870 H   0  0  0  0  0  0  0  0  0  0  0  0
   25.7834   35.2786   84.1462 H   0  0  0  0  0  0  0  0  0  0  0  0
   24.9104   34.8837   82.6210 H   0  0  0  0  0  0  0  0  0  0  0  0
   27.4110   34.8274   82.3338 H   0  0  0  0  0  0  0  0  0  0  0  0
   26.6326   36.0643   81.2942 H   0  0  0  0  0  0  0  0  0  0  0  0
   27.9280   36.5480   83.8990 H   0  0  0  0  0  0  0  0  0  0  0  0
   28.5270   36.9630   82.4300 H   0  0  0  0  0  0  0  0  0  0  0  0
   27.6109   38.8984   83.5346 H   0  0  0  0  0  0  0  0  0  0  0  0
   26.7231   38.4999   82.0340 H   0  0  0  0  0  0  0  0  0  0  0  0
   25.9394   37.6029   84.8827 H   0  0  0  0  0  0  0  0  0  0  0  0
   25.1320   38.8966   83.9408 H   0  0  0  0  0  0  0  0  0  0  0  0
   25.0854   39.2958   88.2735 H   0  0  0  0  0  0  0  0  0  0  0  0
   27.4720   38.7905   87.5711 H   0  0  0  0  0  0  0  0  0  0  0  0
   28.5032   40.0374   85.6132 H   0  0  0  0  0  0  0  0  0  0  0  0
   27.1571   41.7741   84.3307 H   0  0  0  0  0  0  0  0  0  0  0  0
   24.7709   42.2813   85.0419 H   0  0  0  0  0  0  0  0  0  0  0  0
   25.6146   42.6004   88.1781 H   0  0  0  0  0  0  0  0  0  0  0  0
   26.8512   44.2561   89.6198 H   0  0  0  0  0  0  0  0  0  0  0  0
  1  2  2  0
  2  3  1  0
  3  4  2  0
  4  5  1  0
  5  6  1  0
  6  7  1  0
  7  8  2  0
  8  9  1  0
  9 10  2  0
 10 11  1  0
 11 12  1  0
 12 13  1  0
 13 14  1  0
 14 15  1  0
 15 16  1  0
 16 17  1  0
 17 18  1  0
 18 19  1  0
 19 20  1  0
 11 21  2  0
 21 22  1  0
 22 23  1  0
 23 24  2  0
 24 25  1  0
 25 26  2  0
 26 27  1  0
 27 28  2  0
  4 29  1  0
 29 30  2  0
 30  1  1  0
 22  5  2  0
 28 23  1  0
 21  7  1  0
 20 15  1  0
  1 31  1  0
  2 32  1  0
  3 33  1  0
  9 34  1  0
 10 35  1  0
 12 36  1  0
 13 37  1  0
 13 38  1  0
 14 39  1  0
 14 40  1  0
 15 41  1  0
 16 42  1  0
 16 43  1  0
 17 44  1  0
 17 45  1  0
 18 46  1  0
 18 47  1  0
 19 48  1  0
 19 49  1  0
 20 50  1  0
 20 51  1  0
 24 52  1  0
 25 53  1  0
 26 54  1  0
 27 55  1  0
 28 56  1  0
 29 57  1  0
 30 58  1  0
M  CHG  2  15   1  18   1
M  END
>  <meeko>  (85) 
{"free_energy": -8.922, "intermolecular_energy": -7.717, "internal_energy": -1.182}

$$$$

     RDKit          3D

 58 62  0  0  0  0  0  0  0  0999 V2000
   21.2570   42.5260   90.6020 C   0  0  0  0  0  0  0  0  0  0  0  0
   21.3730   43.6860   89.7460 C   0  0  0  0  0  0  0  0  0  0  0  0
   22.4840   43.8060   88.8430 C   0  0  0  0  0  0  0  0  0  0  0  0
   23.4800   42.7720   88.8010 C   0  0  0  0  0  0  0  0  0  0  0  0
   24.6180   42.9220   87.8380 C   0  0  0  0  0  0  0  0  0  0  0  0
   25.5740   43.9050   88.0020 O   0  0  0  0  0  0  0  0  0  0  0  0
   26.4380   43.7600   86.9650 C   0  0  0  0  0  0  0  0  0  0  0  0
   27.5680   44.5230   86.7050 N   0  0  0  0  0  0  0  0  0  0  0  0
   28.3700   44.2940   85.6340 C   0  0  0  0  0  0  0  0  0  0  0  0
   28.0870   43.2290   84.7400 C   0  0  0  0  0  0  0  0  0  0  0  0
   26.9270   42.4030   84.9640 C   0  0  0  0  0  0  0  0  0  0  0  0
   26.6150   41.3580   84.1190 N   0  0  0  0  0  0  0  0  0  0  0  0
   27.6210   40.6020   83.3830 C   0  0  0  0  0  0  0  0  0  0  0  0
   28.4510   39.6850   84.2870 C   0  0  0  0  0  0  0  0  0  0  0  0
   29.9220   39.8330   84.1550 N   0  0  0  0  0  4  0  0  0  0  0  0
   30.3550   40.6540   85.3180 C   0  0  0  0  0  0  0  0  0  0  0  0
   31.8780   40.8760   85.2740 C   0  0  0  0  0  0  0  0  0  0  0  0
   32.2410   41.5200   83.9770 N   0  0  0  0  0  4  0  0  0  0  0  0
   31.8020   40.6960   82.8060 C   0  0  0  0  0  0  0  0  0  0  0  0
   30.2700   40.5200   82.8790 C   0  0  0  0  0  0  0  0  0  0  0  0
   26.0740   42.6820   86.1230 C   0  0  0  0  0  0  0  0  0  0  0  0
   24.9120   42.0880   86.6070 C   0  0  0  0  0  0  0  0  0  0  0  0
   24.1980   40.9320   86.0090 C   0  0  0  0  0  0  0  0  0  0  0  0
   24.5280   39.5910   86.4050 C   0  0  0  0  0  0  0  0  0  0  0  0
   23.8380   38.4880   85.8050 C   0  0  0  0  0  0  0  0  0  0  0  0
   22.8230   38.7350   84.8080 C   0  0  0  0  0  0  0  0  0  0  0  0
   22.4860   40.0830   84.4090 C   0  0  0  0  0  0  0  0  0  0  0  0
   23.1780   41.1830   85.0100 C   0  0  0  0  0  0  0  0  0  0  0  0
   23.3440   41.6190   89.6750 C   0  0  0  0  0  0  0  0  0  0  0  0
   22.2460   41.4920   90.5700 C   0  0  0  0  0  0  0  0  0  0  0  0
   20.3993   42.4375   91.2850 H   0  0  0  0  0  0  0  0  0  0  0  0
   20.6098   44.4772   89.7864 H   0  0  0  0  0  0  0  0  0  0  0  0
   22.5713   44.6849   88.1874 H   0  0  0  0  0  0  0  0  0  0  0  0
   29.2444   44.9378   85.4581 H   0  0  0  0  0  0  0  0  0  0  0  0
   28.7479   43.0351   83.8823 H   0  0  0  0  0  0  0  0  0  0  0  0
   26.0230   41.7560   83.4190 H   0  0  0  0  0  0  0  0  0  0  0  0
   27.1138   39.9850   82.6267 H   0  0  0  0  0  0  0  0  0  0  0  0
   28.3095   41.3260   82.9228 H   0  0  0  0  0  0  0  0  0  0  0  0
   28.1794   39.8995   85.3311 H   0  0  0  0  0  0  0  0  0  0  0  0
   28.2179   38.6560   83.9758 H   0  0  0  0  0  0  0  0  0  0  0  0
   30.3770   38.9430   84.1400 H   0  0  0  0  0  0  0  0  0  0  0  0
   29.8447   41.6279   85.2855 H   0  0  0  0  0  0  0  0  0  0  0  0
   30.0959   40.1253   86.2472 H   0  0  0  0  0  0  0  0  0  0  0  0
   32.1792   41.5290   86.1064 H   0  0  0  0  0  0  0  0  0  0  0  0
   32.3959   39.9099   85.3656 H   0  0  0  0  0  0  0  0  0  0  0  0
   31.7950   42.4130   83.9260 H   0  0  0  0  0  0  0  0  0  0  0  0
   33.2340   41.6280   83.9380 H   0  0  0  0  0  0  0  0  0  0  0  0
   32.0728   41.2069   81.8702 H   0  0  0  0  0  0  0  0  0  0  0  0
   32.2962   39.7135   82.8295 H   0  0  0  0  0  0  0  0  0  0  0  0
   29.7833   41.5059   82.8461 H   0  0  0  0  0  0  0  0  0  0  0  0
   29.9234   39.9183   82.0258 H   0  0  0  0  0  0  0  0  0  0  0  0
   25.3047   39.4124   87.1632 H   0  0  0  0  0  0  0  0  0  0  0  0
   24.0804   37.4572   86.1026 H   0  0  0  0  0  0  0  0  0  0  0  0
   22.2989   37.8856   84.3457 H   0  0  0  0  0  0  0  0  0  0  0  0
   21.7073   40.2615   83.6528 H   0  0  0  0  0  0  0  0  0  0  0  0
   22.9365   42.2148   84.7148 H   0  0  0  0  0  0  0  0  0  0  0  0
   24.1069   40.8272   89.6437 H   0  0  0  0  0  0  0  0  0  0  0  0
   22.1584   40.6138   91.2266 H   0  0  0  0  0  0  0  0  0  0  0  0
  1  2  2  0
  2  3  1  0
  3  4  2  0
  4  5  1  0
  5  6  1  0
  6  7  1  0
  7  8  2  0
  8  9  1  0
  9 10  2  0
 10 11  1  0
 11 12  1  0
 12 13  1  0
 13 14  1  0
 14 15  1  0
 15 16  1  0
 16 17  1  0
 17 18  1  0
 18 19  1  0
 19 20  1  0
 11 21  2  0
 21 22  1  0
 22 23  1  0
 23 24  2  0
 24 25  1  0
 25 26  2  0
 26 27  1  0
 27 28  2  0
  4 29  1  0
 29 30  2  0
 30  1  1  0
 22  5  2  0
 28 23  1  0
 21  7  1  0
 20 15  1  0
  1 31  1  0
  2 32  1  0
  3 33  1  0
  9 34  1  0
 10 35  1  0
 12 36  1  0
 13 37  1  0
 13 38  1  0
 14 39  1  0
 14 40  1  0
 15 41  1  0
 16 42  1  0
 16 43  1  0
 17 44  1  0
 17 45  1  0
 18 46  1  0
 18 47  1  0
 19 48  1  0
 19 49  1  0
 20 50  1  0
 20 51  1  0
 24 52  1  0
 25 53  1  0
 26 54  1  0
 27 55  1  0
 28 56  1  0
 29 57  1  0
 30 58  1  0
M  CHG  2  15   1  18   1
M  END
>  <meeko>  (86) 
{"free_energy": -8.906, "intermolecular_energy": -7.284, "internal_energy": -1.594}

$$$$

     RDKit          3D

 58 62  0  0  0  0  0  0  0  0999 V2000
   20.1850   40.8200   86.2740 C   0  0  0  0  0  0  0  0  0  0  0  0
   20.9810   41.0270   85.0840 C   0  0  0  0  0  0  0  0  0  0  0  0
   22.3870   41.2950   85.1960 C   0  0  0  0  0  0  0  0  0  0  0  0
   22.9960   41.3670   86.4960 C   0  0  0  0  0  0  0  0  0  0  0  0
   24.4670   41.6350   86.5760 C   0  0  0  0  0  0  0  0  0  0  0  0
   24.9570   42.7820   87.1700 O   0  0  0  0  0  0  0  0  0  0  0  0
   26.3080   42.7060   87.0640 C   0  0  0  0  0  0  0  0  0  0  0  0
   27.2360   43.6320   87.5210 N   0  0  0  0  0  0  0  0  0  0  0  0
   28.5730   43.4620   87.3640 C   0  0  0  0  0  0  0  0  0  0  0  0
   29.0790   42.2940   86.7360 C   0  0  0  0  0  0  0  0  0  0  0  0
   28.1600   41.2980   86.2440 C   0  0  0  0  0  0  0  0  0  0  0  0
   28.6090   40.1480   85.6280 N   0  0  0  0  0  0  0  0  0  0  0  0
   28.8900   40.0690   84.2000 C   0  0  0  0  0  0  0  0  0  0  0  0
   30.2970   39.5440   83.9020 C   0  0  0  0  0  0  0  0  0  0  0  0
   30.3570   38.3950   82.9640 N   0  0  0  0  0  4  0  0  0  0  0  0
   29.1820   37.5420   83.2890 C   0  0  0  0  0  0  0  0  0  0  0  0
   29.1530   36.3060   82.3710 C   0  0  0  0  0  0  0  0  0  0  0  0
   30.4370   35.5590   82.5150 N   0  0  0  0  0  4  0  0  0  0  0  0
   31.6200   36.4180   82.1920 C   0  0  0  0  0  0  0  0  0  0  0  0
   31.6210   37.6290   83.1500 C   0  0  0  0  0  0  0  0  0  0  0  0
   26.7210   41.5160   86.4200 C   0  0  0  0  0  0  0  0  0  0  0  0
   25.6020   40.7680   86.0670 C   0  0  0  0  0  0  0  0  0  0  0  0
   25.6000   39.4600   85.3660 C   0  0  0  0  0  0  0  0  0  0  0  0
   25.8240   38.2430   86.0990 C   0  0  0  0  0  0  0  0  0  0  0  0
   25.8350   36.9920   85.4020 C   0  0  0  0  0  0  0  0  0  0  0  0
   25.6240   36.9650   83.9740 C   0  0  0  0  0  0  0  0  0  0  0  0
   25.3950   38.1860   83.2340 C   0  0  0  0  0  0  0  0  0  0  0  0
   25.3860   39.4360   83.9340 C   0  0  0  0  0  0  0  0  0  0  0  0
   22.1730   41.1610   87.6770 C   0  0  0  0  0  0  0  0  0  0  0  0
   20.7810   40.8920   87.5730 C   0  0  0  0  0  0  0  0  0  0  0  0
   19.1104   40.6050   86.1794 H   0  0  0  0  0  0  0  0  0  0  0  0
   20.5084   40.9790   84.0919 H   0  0  0  0  0  0  0  0  0  0  0  0
   22.9951   41.4445   84.2916 H   0  0  0  0  0  0  0  0  0  0  0  0
   29.2686   44.2337   87.7254 H   0  0  0  0  0  0  0  0  0  0  0  0
   30.1639   42.1498   86.6255 H   0  0  0  0  0  0  0  0  0  0  0  0
   27.8950   39.4680   85.7920 H   0  0  0  0  0  0  0  0  0  0  0  0
   28.1568   39.3943   83.7340 H   0  0  0  0  0  0  0  0  0  0  0  0
   28.8226   41.0882   83.7916 H   0  0  0  0  0  0  0  0  0  0  0  0
   30.8831   40.3680   83.4689 H   0  0  0  0  0  0  0  0  0  0  0  0
   30.6954   39.1776   84.8596 H   0  0  0  0  0  0  0  0  0  0  0  0
   30.3390   38.7010   82.0120 H   0  0  0  0  0  0  0  0  0  0  0  0
   29.2491   37.2149   84.3371 H   0  0  0  0  0  0  0  0  0  0  0  0
   28.2617   38.1248   83.1361 H   0  0  0  0  0  0  0  0  0  0  0  0
   28.3141   35.6546   82.6571 H   0  0  0  0  0  0  0  0  0  0  0  0
   29.0252   36.6242   81.3258 H   0  0  0  0  0  0  0  0  0  0  0  0
   30.5200   35.2430   83.4600 H   0  0  0  0  0  0  0  0  0  0  0  0
   30.4270   34.7780   81.8900 H   0  0  0  0  0  0  0  0  0  0  0  0
   32.5461   35.8393   82.3242 H   0  0  0  0  0  0  0  0  0  0  0  0
   31.5628   36.7622   81.1488 H   0  0  0  0  0  0  0  0  0  0  0  0
   31.6892   37.2767   84.1898 H   0  0  0  0  0  0  0  0  0  0  0  0
   32.4834   38.2757   82.9309 H   0  0  0  0  0  0  0  0  0  0  0  0
   25.9856   38.2729   87.1866 H   0  0  0  0  0  0  0  0  0  0  0  0
   26.0036   36.0549   85.9528 H   0  0  0  0  0  0  0  0  0  0  0  0
   25.6376   36.0025   83.4417 H   0  0  0  0  0  0  0  0  0  0  0  0
   25.2297   38.1555   82.1469 H   0  0  0  0  0  0  0  0  0  0  0  0
   25.2171   40.3744   83.3855 H   0  0  0  0  0  0  0  0  0  0  0  0
   22.6377   41.2145   88.6726 H   0  0  0  0  0  0  0  0  0  0  0  0
   20.1718   40.7416   88.4765 H   0  0  0  0  0  0  0  0  0  0  0  0
  1  2  2  0
  2  3  1  0
  3  4  2  0
  4  5  1  0
  5  6  1  0
  6  7  1  0
  7  8  2  0
  8  9  1  0
  9 10  2  0
 10 11  1  0
 11 12  1  0
 12 13  1  0
 13 14  1  0
 14 15  1  0
 15 16  1  0
 16 17  1  0
 17 18  1  0
 18 19  1  0
 19 20  1  0
 11 21  2  0
 21 22  1  0
 22 23  1  0
 23 24  2  0
 24 25  1  0
 25 26  2  0
 26 27  1  0
 27 28  2  0
  4 29  1  0
 29 30  2  0
 30  1  1  0
 22  5  2  0
 28 23  1  0
 21  7  1  0
 20 15  1  0
  1 31  1  0
  2 32  1  0
  3 33  1  0
  9 34  1  0
 10 35  1  0
 12 36  1  0
 13 37  1  0
 13 38  1  0
 14 39  1  0
 14 40  1  0
 15 41  1  0
 16 42  1  0
 16 43  1  0
 17 44  1  0
 17 45  1  0
 18 46  1  0
 18 47  1  0
 19 48  1  0
 19 49  1  0
 20 50  1  0
 20 51  1  0
 24 52  1  0
 25 53  1  0
 26 54  1  0
 27 55  1  0
 28 56  1  0
 29 57  1  0
 30 58  1  0
M  CHG  2  15   1  18   1
M  END
>  <meeko>  (87) 
{"free_energy": -8.904, "intermolecular_energy": -7.276, "internal_energy": -1.599}

$$$$

     RDKit          3D

 58 62  0  0  0  0  0  0  0  0999 V2000
   20.6990   36.7630   85.6060 C   0  0  0  0  0  0  0  0  0  0  0  0
   21.2330   37.6230   86.6400 C   0  0  0  0  0  0  0  0  0  0  0  0
   22.5570   38.1650   86.5120 C   0  0  0  0  0  0  0  0  0  0  0  0
   23.3490   37.8420   85.3580 C   0  0  0  0  0  0  0  0  0  0  0  0
   24.7210   38.4360   85.2500 C   0  0  0  0  0  0  0  0  0  0  0  0
   25.7630   37.7360   84.6730 O   0  0  0  0  0  0  0  0  0  0  0  0
   26.8440   38.5550   84.7460 C   0  0  0  0  0  0  0  0  0  0  0  0
   28.1270   38.2870   84.2910 N   0  0  0  0  0  0  0  0  0  0  0  0
   29.1440   39.1790   84.4130 C   0  0  0  0  0  0  0  0  0  0  0  0
   28.9160   40.4500   85.0000 C   0  0  0  0  0  0  0  0  0  0  0  0
   27.6010   40.7820   85.4880 C   0  0  0  0  0  0  0  0  0  0  0  0
   27.3370   42.0070   86.0650 N   0  0  0  0  0  0  0  0  0  0  0  0
   28.1310   43.2000   85.8010 C   0  0  0  0  0  0  0  0  0  0  0  0
   29.0320   43.5840   86.9780 C   0  0  0  0  0  0  0  0  0  0  0  0
   28.3240   44.1270   88.1640 N   0  0  0  0  0  4  0  0  0  0  0  0
   28.2670   43.0140   89.1500 C   0  0  0  0  0  0  0  0  0  0  0  0
   27.5380   43.4720   90.4270 C   0  0  0  0  0  0  0  0  0  0  0  0
   26.1750   43.9610   90.0630 N   0  0  0  0  0  4  0  0  0  0  0  0
   26.2320   45.0780   89.0690 C   0  0  0  0  0  0  0  0  0  0  0  0
   26.9480   44.5670   87.8000 C   0  0  0  0  0  0  0  0  0  0  0  0
   26.5270   39.7940   85.3510 C   0  0  0  0  0  0  0  0  0  0  0  0
   25.1820   39.8040   85.7110 C   0  0  0  0  0  0  0  0  0  0  0  0
   24.4560   40.9120   86.3790 C   0  0  0  0  0  0  0  0  0  0  0  0
   23.7230   41.8730   85.6010 C   0  0  0  0  0  0  0  0  0  0  0  0
   23.0420   42.9460   86.2620 C   0  0  0  0  0  0  0  0  0  0  0  0
   23.1000   43.0520   87.7020 C   0  0  0  0  0  0  0  0  0  0  0  0
   23.8330   42.0850   88.4880 C   0  0  0  0  0  0  0  0  0  0  0  0
   24.5140   41.0150   87.8230 C   0  0  0  0  0  0  0  0  0  0  0  0
   22.7930   36.9710   84.3360 C   0  0  0  0  0  0  0  0  0  0  0  0
   21.4820   36.4330   84.4540 C   0  0  0  0  0  0  0  0  0  0  0  0
   19.6809   36.3587   85.7063 H   0  0  0  0  0  0  0  0  0  0  0  0
   20.6245   37.8619   87.5247 H   0  0  0  0  0  0  0  0  0  0  0  0
   22.9624   38.8241   87.2938 H   0  0  0  0  0  0  0  0  0  0  0  0
   30.1498   38.9143   84.0547 H   0  0  0  0  0  0  0  0  0  0  0  0
   29.7371   41.1773   85.0822 H   0  0  0  0  0  0  0  0  0  0  0  0
   27.4150   41.8540   87.0500 H   0  0  0  0  0  0  0  0  0  0  0  0
   28.7632   43.0139   84.9202 H   0  0  0  0  0  0  0  0  0  0  0  0
   27.4324   44.0328   85.6325 H   0  0  0  0  0  0  0  0  0  0  0  0
   29.5829   42.6853   87.2923 H   0  0  0  0  0  0  0  0  0  0  0  0
   29.6825   44.3927   86.6137 H   0  0  0  0  0  0  0  0  0  0  0  0
   28.7970   44.9260   88.5360 H   0  0  0  0  0  0  0  0  0  0  0  0
   27.7264   42.1642   88.7079 H   0  0  0  0  0  0  0  0  0  0  0  0
   29.2922   42.7122   89.4105 H   0  0  0  0  0  0  0  0  0  0  0  0
   27.4516   42.6264   91.1252 H   0  0  0  0  0  0  0  0  0  0  0  0
   28.1061   44.2821   90.9076 H   0  0  0  0  0  0  0  0  0  0  0  0
   25.6590   43.2030   89.6650 H   0  0  0  0  0  0  0  0  0  0  0  0
   25.7210   44.2910   90.8910 H   0  0  0  0  0  0  0  0  0  0  0  0
   25.2117   45.4013   88.8149 H   0  0  0  0  0  0  0  0  0  0  0  0
   26.7795   45.9327   89.4929 H   0  0  0  0  0  0  0  0  0  0  0  0
   26.3892   43.7190   87.3774 H   0  0  0  0  0  0  0  0  0  0  0  0
   27.0007   45.3726   87.0529 H   0  0  0  0  0  0  0  0  0  0  0  0
   23.6852   41.7851   84.5052 H   0  0  0  0  0  0  0  0  0  0  0  0
   22.4773   43.6861   85.6760 H   0  0  0  0  0  0  0  0  0  0  0  0
   22.5796   43.8793   88.2068 H   0  0  0  0  0  0  0  0  0  0  0  0
   23.8672   42.1701   89.5842 H   0  0  0  0  0  0  0  0  0  0  0  0
   25.0794   40.2736   88.4067 H   0  0  0  0  0  0  0  0  0  0  0  0
   23.3992   36.7227   83.4524 H   0  0  0  0  0  0  0  0  0  0  0  0
   21.0761   35.7738   83.6726 H   0  0  0  0  0  0  0  0  0  0  0  0
  1  2  2  0
  2  3  1  0
  3  4  2  0
  4  5  1  0
  5  6  1  0
  6  7  1  0
  7  8  2  0
  8  9  1  0
  9 10  2  0
 10 11  1  0
 11 12  1  0
 12 13  1  0
 13 14  1  0
 14 15  1  0
 15 16  1  0
 16 17  1  0
 17 18  1  0
 18 19  1  0
 19 20  1  0
 11 21  2  0
 21 22  1  0
 22 23  1  0
 23 24  2  0
 24 25  1  0
 25 26  2  0
 26 27  1  0
 27 28  2  0
  4 29  1  0
 29 30  2  0
 30  1  1  0
 22  5  2  0
 28 23  1  0
 21  7  1  0
 20 15  1  0
  1 31  1  0
  2 32  1  0
  3 33  1  0
  9 34  1  0
 10 35  1  0
 12 36  1  0
 13 37  1  0
 13 38  1  0
 14 39  1  0
 14 40  1  0
 15 41  1  0
 16 42  1  0
 16 43  1  0
 17 44  1  0
 17 45  1  0
 18 46  1  0
 18 47  1  0
 19 48  1  0
 19 49  1  0
 20 50  1  0
 20 51  1  0
 24 52  1  0
 25 53  1  0
 26 54  1  0
 27 55  1  0
 28 56  1  0
 29 57  1  0
 30 58  1  0
M  CHG  2  15   1  18   1
M  END
>  <meeko>  (88) 
{"free_energy": -8.879, "intermolecular_energy": -7.668, "internal_energy": -1.173}

$$$$

     RDKit          3D

 58 62  0  0  0  0  0  0  0  0999 V2000
   21.3340   36.9110   83.9570 C   0  0  0  0  0  0  0  0  0  0  0  0
   20.5740   38.1380   83.8540 C   0  0  0  0  0  0  0  0  0  0  0  0
   21.1490   39.3800   84.2900 C   0  0  0  0  0  0  0  0  0  0  0  0
   22.4780   39.3940   84.8370 C   0  0  0  0  0  0  0  0  0  0  0  0
   23.0520   40.7090   85.2700 C   0  0  0  0  0  0  0  0  0  0  0  0
   22.2390   41.7470   85.6810 O   0  0  0  0  0  0  0  0  0  0  0  0
   23.0750   42.7710   85.9910 C   0  0  0  0  0  0  0  0  0  0  0  0
   22.7190   44.0300   86.4550 N   0  0  0  0  0  0  0  0  0  0  0  0
   23.6370   44.9890   86.7370 C   0  0  0  0  0  0  0  0  0  0  0  0
   25.0230   44.7220   86.5870 C   0  0  0  0  0  0  0  0  0  0  0  0
   25.4490   43.4300   86.1090 C   0  0  0  0  0  0  0  0  0  0  0  0
   26.7860   43.1290   85.9480 N   0  0  0  0  0  0  0  0  0  0  0  0
   27.7110   42.9890   87.0660 C   0  0  0  0  0  0  0  0  0  0  0  0
   28.5620   44.2430   87.2910 C   0  0  0  0  0  0  0  0  0  0  0  0
   29.9120   43.9960   87.8570 N   0  0  0  0  0  4  0  0  0  0  0  0
   30.3500   42.6840   87.3090 C   0  0  0  0  0  0  0  0  0  0  0  0
   31.7490   42.3250   87.8440 C   0  0  0  0  0  0  0  0  0  0  0  0
   31.7140   42.3170   89.3360 N   0  0  0  0  0  4  0  0  0  0  0  0
   31.2690   43.6360   89.8890 C   0  0  0  0  0  0  0  0  0  0  0  0
   29.8560   43.9420   89.3450 C   0  0  0  0  0  0  0  0  0  0  0  0
   24.4330   42.4190   85.8040 C   0  0  0  0  0  0  0  0  0  0  0  0
   24.5120   41.1100   85.3370 C   0  0  0  0  0  0  0  0  0  0  0  0
   25.7520   40.3650   85.0070 C   0  0  0  0  0  0  0  0  0  0  0  0
   26.3530   39.4900   85.9770 C   0  0  0  0  0  0  0  0  0  0  0  0
   27.5600   38.7920   85.6450 C   0  0  0  0  0  0  0  0  0  0  0  0
   28.1590   38.9750   84.3440 C   0  0  0  0  0  0  0  0  0  0  0  0
   27.5560   39.8520   83.3650 C   0  0  0  0  0  0  0  0  0  0  0  0
   26.3500   40.5490   83.7000 C   0  0  0  0  0  0  0  0  0  0  0  0
   23.2180   38.1480   84.9360 C   0  0  0  0  0  0  0  0  0  0  0  0
   22.6570   36.9150   84.5030 C   0  0  0  0  0  0  0  0  0  0  0  0
   20.8904   35.9654   83.6121 H   0  0  0  0  0  0  0  0  0  0  0  0
   19.5545   38.1196   83.4412 H   0  0  0  0  0  0  0  0  0  0  0  0
   20.5755   40.3149   84.2057 H   0  0  0  0  0  0  0  0  0  0  0  0
   23.3051   45.9787   87.0838 H   0  0  0  0  0  0  0  0  0  0  0  0
   25.7662   45.4946   86.8334 H   0  0  0  0  0  0  0  0  0  0  0  0
   27.1560   43.8740   85.3940 H   0  0  0  0  0  0  0  0  0  0  0  0
   27.1313   42.7888   87.9792 H   0  0  0  0  0  0  0  0  0  0  0  0
   28.3957   42.1614   86.8286 H   0  0  0  0  0  0  0  0  0  0  0  0
   28.6863   44.7486   86.3220 H   0  0  0  0  0  0  0  0  0  0  0  0
   28.0241   44.8480   88.0357 H   0  0  0  0  0  0  0  0  0  0  0  0
   30.5470   44.7290   87.6150 H   0  0  0  0  0  0  0  0  0  0  0  0
   29.6341   41.9060   87.6127 H   0  0  0  0  0  0  0  0  0  0  0  0
   30.3908   42.7487   86.2117 H   0  0  0  0  0  0  0  0  0  0  0  0
   32.0394   41.3295   87.4770 H   0  0  0  0  0  0  0  0  0  0  0  0
   32.4813   43.0677   87.4945 H   0  0  0  0  0  0  0  0  0  0  0  0
   31.0740   41.6110   89.6390 H   0  0  0  0  0  0  0  0  0  0  0  0
   32.6330   42.1200   89.6780 H   0  0  0  0  0  0  0  0  0  0  0  0
   31.2416   43.5879   90.9876 H   0  0  0  0  0  0  0  0  0  0  0  0
   31.9698   44.4281   89.5865 H   0  0  0  0  0  0  0  0  0  0  0  0
   29.1599   43.1505   89.6597 H   0  0  0  0  0  0  0  0  0  0  0  0
   29.5061   44.9073   89.7397 H   0  0  0  0  0  0  0  0  0  0  0  0
   25.8901   39.3574   86.9660 H   0  0  0  0  0  0  0  0  0  0  0  0
   28.0283   38.1193   86.3786 H   0  0  0  0  0  0  0  0  0  0  0  0
   29.0870   38.4398   84.0941 H   0  0  0  0  0  0  0  0  0  0  0  0
   28.0177   39.9824   82.3751 H   0  0  0  0  0  0  0  0  0  0  0  0
   25.8796   41.2215   82.9676 H   0  0  0  0  0  0  0  0  0  0  0  0
   24.2349   38.1583   85.3552 H   0  0  0  0  0  0  0  0  0  0  0  0
   23.2303   35.9799   84.5863 H   0  0  0  0  0  0  0  0  0  0  0  0
  1  2  2  0
  2  3  1  0
  3  4  2  0
  4  5  1  0
  5  6  1  0
  6  7  1  0
  7  8  2  0
  8  9  1  0
  9 10  2  0
 10 11  1  0
 11 12  1  0
 12 13  1  0
 13 14  1  0
 14 15  1  0
 15 16  1  0
 16 17  1  0
 17 18  1  0
 18 19  1  0
 19 20  1  0
 11 21  2  0
 21 22  1  0
 22 23  1  0
 23 24  2  0
 24 25  1  0
 25 26  2  0
 26 27  1  0
 27 28  2  0
  4 29  1  0
 29 30  2  0
 30  1  1  0
 22  5  2  0
 28 23  1  0
 21  7  1  0
 20 15  1  0
  1 31  1  0
  2 32  1  0
  3 33  1  0
  9 34  1  0
 10 35  1  0
 12 36  1  0
 13 37  1  0
 13 38  1  0
 14 39  1  0
 14 40  1  0
 15 41  1  0
 16 42  1  0
 16 43  1  0
 17 44  1  0
 17 45  1  0
 18 46  1  0
 18 47  1  0
 19 48  1  0
 19 49  1  0
 20 50  1  0
 20 51  1  0
 24 52  1  0
 25 53  1  0
 26 54  1  0
 27 55  1  0
 28 56  1  0
 29 57  1  0
 30 58  1  0
M  CHG  2  15   1  18   1
M  END
>  <meeko>  (89) 
{"free_energy": -8.853, "intermolecular_energy": -7.413, "internal_energy": -1.393}

$$$$

     RDKit          3D

 58 62  0  0  0  0  0  0  0  0999 V2000
   19.6270   36.1290   86.8380 C   0  0  0  0  0  0  0  0  0  0  0  0
   20.8700   35.5790   87.3360 C   0  0  0  0  0  0  0  0  0  0  0  0
   22.1020   35.8480   86.6490 C   0  0  0  0  0  0  0  0  0  0  0  0
   22.0920   36.6570   85.4620 C   0  0  0  0  0  0  0  0  0  0  0  0
   23.3970   36.9290   84.7770 C   0  0  0  0  0  0  0  0  0  0  0  0
   23.9410   36.0260   83.8850 O   0  0  0  0  0  0  0  0  0  0  0  0
   25.1080   36.5780   83.4650 C   0  0  0  0  0  0  0  0  0  0  0  0
   26.0100   36.0390   82.5590 N   0  0  0  0  0  0  0  0  0  0  0  0
   27.1560   36.6750   82.2040 C   0  0  0  0  0  0  0  0  0  0  0  0
   27.4630   37.9520   82.7420 C   0  0  0  0  0  0  0  0  0  0  0  0
   26.5600   38.5600   83.6880 C   0  0  0  0  0  0  0  0  0  0  0  0
   26.8210   39.7990   84.2350 N   0  0  0  0  0  0  0  0  0  0  0  0
   27.9350   40.6380   83.8110 C   0  0  0  0  0  0  0  0  0  0  0  0
   29.1150   40.5920   84.7860 C   0  0  0  0  0  0  0  0  0  0  0  0
   30.4500   40.4380   84.1530 N   0  0  0  0  0  4  0  0  0  0  0  0
   30.2630   40.7820   82.7180 C   0  0  0  0  0  0  0  0  0  0  0  0
   31.5970   40.6470   81.9610 C   0  0  0  0  0  0  0  0  0  0  0  0
   32.1190   39.2590   82.1350 N   0  0  0  0  0  4  0  0  0  0  0  0
   32.3030   38.9110   83.5790 C   0  0  0  0  0  0  0  0  0  0  0  0
   30.9380   39.0370   84.2900 C   0  0  0  0  0  0  0  0  0  0  0  0
   25.3370   37.8430   84.0580 C   0  0  0  0  0  0  0  0  0  0  0  0
   24.2870   38.1470   84.9200 C   0  0  0  0  0  0  0  0  0  0  0  0
   24.1480   39.3750   85.7420 C   0  0  0  0  0  0  0  0  0  0  0  0
   25.1950   40.3590   85.7600 C   0  0  0  0  0  0  0  0  0  0  0  0
   25.0490   41.5300   86.5720 C   0  0  0  0  0  0  0  0  0  0  0  0
   23.8550   41.7080   87.3650 C   0  0  0  0  0  0  0  0  0  0  0  0
   22.7980   40.7220   87.3470 C   0  0  0  0  0  0  0  0  0  0  0  0
   22.9480   39.5520   86.5350 C   0  0  0  0  0  0  0  0  0  0  0  0
   20.8300   37.1930   84.9780 C   0  0  0  0  0  0  0  0  0  0  0  0
   19.6060   36.9340   85.6550 C   0  0  0  0  0  0  0  0  0  0  0  0
   18.6885   35.9260   87.3747 H   0  0  0  0  0  0  0  0  0  0  0  0
   20.8708   34.9544   88.2415 H   0  0  0  0  0  0  0  0  0  0  0  0
   23.0485   35.4367   87.0297 H   0  0  0  0  0  0  0  0  0  0  0  0
   27.8498   36.1982   81.4960 H   0  0  0  0  0  0  0  0  0  0  0  0
   28.3828   38.4741   82.4397 H   0  0  0  0  0  0  0  0  0  0  0  0
   26.9790   39.6270   85.2070 H   0  0  0  0  0  0  0  0  0  0  0  0
   28.2797   40.2931   82.8250 H   0  0  0  0  0  0  0  0  0  0  0  0
   27.5738   41.6764   83.7758 H   0  0  0  0  0  0  0  0  0  0  0  0
   29.1173   41.5288   85.3626 H   0  0  0  0  0  0  0  0  0  0  0  0
   28.9650   39.6961   85.4063 H   0  0  0  0  0  0  0  0  0  0  0  0
   31.1290   41.0280   84.5900 H   0  0  0  0  0  0  0  0  0  0  0  0
   29.5227   40.1000   82.2743 H   0  0  0  0  0  0  0  0  0  0  0  0
   29.9099   41.8209   82.6409 H   0  0  0  0  0  0  0  0  0  0  0  0
   31.4358   40.8486   80.8917 H   0  0  0  0  0  0  0  0  0  0  0  0
   32.3244   41.3693   82.3600 H   0  0  0  0  0  0  0  0  0  0  0  0
   31.4660   38.6180   81.7310 H   0  0  0  0  0  0  0  0  0  0  0  0
   33.0020   39.1870   81.6720 H   0  0  0  0  0  0  0  0  0  0  0  0
   32.6741   37.8793   83.6679 H   0  0  0  0  0  0  0  0  0  0  0  0
   33.0334   39.5915   84.0411 H   0  0  0  0  0  0  0  0  0  0  0  0
   30.2160   38.3476   83.8280 H   0  0  0  0  0  0  0  0  0  0  0  0
   31.0475   38.7829   85.3546 H   0  0  0  0  0  0  0  0  0  0  0  0
   26.1020   40.2141   85.1547 H   0  0  0  0  0  0  0  0  0  0  0  0
   25.8432   42.2908   86.5915 H   0  0  0  0  0  0  0  0  0  0  0  0
   23.7485   42.6061   87.9912 H   0  0  0  0  0  0  0  0  0  0  0  0
   21.8896   40.8687   87.9497 H   0  0  0  0  0  0  0  0  0  0  0  0
   22.1549   38.7901   86.5133 H   0  0  0  0  0  0  0  0  0  0  0  0
   20.8216   37.8121   84.0688 H   0  0  0  0  0  0  0  0  0  0  0  0
   18.6591   37.3456   85.2755 H   0  0  0  0  0  0  0  0  0  0  0  0
  1  2  2  0
  2  3  1  0
  3  4  2  0
  4  5  1  0
  5  6  1  0
  6  7  1  0
  7  8  2  0
  8  9  1  0
  9 10  2  0
 10 11  1  0
 11 12  1  0
 12 13  1  0
 13 14  1  0
 14 15  1  0
 15 16  1  0
 16 17  1  0
 17 18  1  0
 18 19  1  0
 19 20  1  0
 11 21  2  0
 21 22  1  0
 22 23  1  0
 23 24  2  0
 24 25  1  0
 25 26  2  0
 26 27  1  0
 27 28  2  0
  4 29  1  0
 29 30  2  0
 30  1  1  0
 22  5  2  0
 28 23  1  0
 21  7  1  0
 20 15  1  0
  1 31  1  0
  2 32  1  0
  3 33  1  0
  9 34  1  0
 10 35  1  0
 12 36  1  0
 13 37  1  0
 13 38  1  0
 14 39  1  0
 14 40  1  0
 15 41  1  0
 16 42  1  0
 16 43  1  0
 17 44  1  0
 17 45  1  0
 18 46  1  0
 18 47  1  0
 19 48  1  0
 19 49  1  0
 20 50  1  0
 20 51  1  0
 24 52  1  0
 25 53  1  0
 26 54  1  0
 27 55  1  0
 28 56  1  0
 29 57  1  0
 30 58  1  0
M  CHG  2  15   1  18   1
M  END
>  <meeko>  (90) 
{"free_energy": -8.848, "intermolecular_energy": -9.767, "internal_energy": 0.968}

$$$$

     RDKit          3D

 58 62  0  0  0  0  0  0  0  0999 V2000
   29.2530   43.8900   89.6490 C   0  0  0  0  0  0  0  0  0  0  0  0
   28.4520   43.1570   90.6050 C   0  0  0  0  0  0  0  0  0  0  0  0
   27.1380   42.7020   90.2430 C   0  0  0  0  0  0  0  0  0  0  0  0
   26.6230   42.9860   88.9330 C   0  0  0  0  0  0  0  0  0  0  0  0
   25.2550   42.4840   88.5850 C   0  0  0  0  0  0  0  0  0  0  0  0
   24.1320   42.9400   89.2480 O   0  0  0  0  0  0  0  0  0  0  0  0
   23.0820   42.2830   88.6930 C   0  0  0  0  0  0  0  0  0  0  0  0
   21.7420   42.4130   89.0320 N   0  0  0  0  0  0  0  0  0  0  0  0
   20.7620   41.7060   88.4120 C   0  0  0  0  0  0  0  0  0  0  0  0
   21.0810   40.8110   87.3580 C   0  0  0  0  0  0  0  0  0  0  0  0
   22.4570   40.6390   86.9630 C   0  0  0  0  0  0  0  0  0  0  0  0
   22.8100   39.7790   85.9440 N   0  0  0  0  0  0  0  0  0  0  0  0
   22.9870   38.3460   86.1380 C   0  0  0  0  0  0  0  0  0  0  0  0
   22.2910   37.5120   85.0580 C   0  0  0  0  0  0  0  0  0  0  0  0
   23.1510   36.5070   84.3840 N   0  0  0  0  0  4  0  0  0  0  0  0
   24.4780   37.1570   84.2100 C   0  0  0  0  0  0  0  0  0  0  0  0
   25.4530   36.1940   83.5080 C   0  0  0  0  0  0  0  0  0  0  0  0
   24.8670   35.7720   82.2010 N   0  0  0  0  0  4  0  0  0  0  0  0
   23.5300   35.1210   82.3750 C   0  0  0  0  0  0  0  0  0  0  0  0
   22.5820   36.1290   83.0600 C   0  0  0  0  0  0  0  0  0  0  0  0
   23.4930   41.4090   87.6590 C   0  0  0  0  0  0  0  0  0  0  0  0
   24.8760   41.4700   87.5230 C   0  0  0  0  0  0  0  0  0  0  0  0
   25.7030   40.7020   86.5590 C   0  0  0  0  0  0  0  0  0  0  0  0
   26.3710   39.4990   86.9730 C   0  0  0  0  0  0  0  0  0  0  0  0
   27.1780   38.7810   86.0320 C   0  0  0  0  0  0  0  0  0  0  0  0
   27.3130   39.2730   84.6810 C   0  0  0  0  0  0  0  0  0  0  0  0
   26.6400   40.4820   84.2600 C   0  0  0  0  0  0  0  0  0  0  0  0
   25.8350   41.1980   85.2040 C   0  0  0  0  0  0  0  0  0  0  0  0
   27.4450   43.7290   87.9920 C   0  0  0  0  0  0  0  0  0  0  0  0
   28.7470   44.1800   88.3410 C   0  0  0  0  0  0  0  0  0  0  0  0
   30.2614   44.2282   89.9297 H   0  0  0  0  0  0  0  0  0  0  0  0
   28.8490   42.9479   91.6093 H   0  0  0  0  0  0  0  0  0  0  0  0
   26.5295   42.1388   90.9659 H   0  0  0  0  0  0  0  0  0  0  0  0
   19.7156   41.8278   88.7285 H   0  0  0  0  0  0  0  0  0  0  0  0
   20.2839   40.2522   86.8458 H   0  0  0  0  0  0  0  0  0  0  0  0
   23.6960   40.1100   85.6180 H   0  0  0  0  0  0  0  0  0  0  0  0
   24.0631   38.1187   86.1189 H   0  0  0  0  0  0  0  0  0  0  0  0
   22.5324   38.0833   87.1046 H   0  0  0  0  0  0  0  0  0  0  0  0
   21.4502   36.9804   85.5276 H   0  0  0  0  0  0  0  0  0  0  0  0
   21.9807   38.2215   84.2768 H   0  0  0  0  0  0  0  0  0  0  0  0
   23.2180   35.6670   84.9230 H   0  0  0  0  0  0  0  0  0  0  0  0
   24.3609   38.0646   83.5996 H   0  0  0  0  0  0  0  0  0  0  0  0
   24.8819   37.4194   85.1989 H   0  0  0  0  0  0  0  0  0  0  0  0
   26.4124   36.7032   83.3342 H   0  0  0  0  0  0  0  0  0  0  0  0
   25.6213   35.3104   84.1412 H   0  0  0  0  0  0  0  0  0  0  0  0
   24.7570   36.5800   81.6230 H   0  0  0  0  0  0  0  0  0  0  0  0
   25.4870   35.1190   81.7670 H   0  0  0  0  0  0  0  0  0  0  0  0
   23.1241   34.8379   81.3926 H   0  0  0  0  0  0  0  0  0  0  0  0
   23.6282   34.2155   82.9919 H   0  0  0  0  0  0  0  0  0  0  0  0
   22.4816   37.0264   82.4319 H   0  0  0  0  0  0  0  0  0  0  0  0
   21.5908   35.6724   83.1980 H   0  0  0  0  0  0  0  0  0  0  0  0
   26.2635   39.1323   88.0045 H   0  0  0  0  0  0  0  0  0  0  0  0
   27.6930   37.8582   86.3374 H   0  0  0  0  0  0  0  0  0  0  0  0
   27.9362   38.7207   83.9623 H   0  0  0  0  0  0  0  0  0  0  0  0
   26.7450   40.8471   83.2277 H   0  0  0  0  0  0  0  0  0  0  0  0
   25.3189   42.1211   84.9014 H   0  0  0  0  0  0  0  0  0  0  0  0
   27.0510   43.9469   86.9884 H   0  0  0  0  0  0  0  0  0  0  0  0
   29.3561   44.7426   87.6182 H   0  0  0  0  0  0  0  0  0  0  0  0
  1  2  2  0
  2  3  1  0
  3  4  2  0
  4  5  1  0
  5  6  1  0
  6  7  1  0
  7  8  2  0
  8  9  1  0
  9 10  2  0
 10 11  1  0
 11 12  1  0
 12 13  1  0
 13 14  1  0
 14 15  1  0
 15 16  1  0
 16 17  1  0
 17 18  1  0
 18 19  1  0
 19 20  1  0
 11 21  2  0
 21 22  1  0
 22 23  1  0
 23 24  2  0
 24 25  1  0
 25 26  2  0
 26 27  1  0
 27 28  2  0
  4 29  1  0
 29 30  2  0
 30  1  1  0
 22  5  2  0
 28 23  1  0
 21  7  1  0
 20 15  1  0
  1 31  1  0
  2 32  1  0
  3 33  1  0
  9 34  1  0
 10 35  1  0
 12 36  1  0
 13 37  1  0
 13 38  1  0
 14 39  1  0
 14 40  1  0
 15 41  1  0
 16 42  1  0
 16 43  1  0
 17 44  1  0
 17 45  1  0
 18 46  1  0
 18 47  1  0
 19 48  1  0
 19 49  1  0
 20 50  1  0
 20 51  1  0
 24 52  1  0
 25 53  1  0
 26 54  1  0
 27 55  1  0
 28 56  1  0
 29 57  1  0
 30 58  1  0
M  CHG  2  15   1  18   1
M  END
>  <meeko>  (91) 
{"free_energy": -8.84, "intermolecular_energy": -7.166, "internal_energy": -1.624}

$$$$
