MODEL 1
REMARK VINA RESULT:    -7.655      0.000      0.000
REMARK INTER + INTRA:         -10.137
REMARK INTER:                  -9.445
REMARK INTRA:                  -0.691
REMARK UNBOUND:                -0.691
REMARK  Name = conformer_36_chiral0
REMARK  5 active torsions:
REMARK  status: ('A' for Active; 'I' for Inactive)
REMARK    1  A    between atoms: C_1  and  C_2
REMARK    2  A    between atoms: C_4  and  C_5
REMARK    3  A    between atoms: C_5  and  N_6
REMARK    4  A    between atoms: C_9  and  C_10
REMARK    5  A    between atoms: N_12  and  C_13
REMARK                            x       y       z     vdW  Elec       q    Type
REMARK                         _______ _______ _______ _____ _____    ______ ____
ROOT
ATOM      1  C   UNL     1      -7.297  20.584 -20.579  0.00  0.00    +0.000 C 
ATOM      2  O   UNL     1      -7.569  21.471 -19.789  0.00  0.00    +0.000 OA
ATOM      3  N   UNL     1      -6.045  20.177 -20.895  0.00  0.00    +0.000 N 
ATOM      4  H   UNL     1      -5.950  19.496 -21.610  0.00  0.00    +0.000 HD
ENDROOT
BRANCH   3   5
ATOM      5  C   UNL     1      -4.832  20.656 -20.322  0.00  0.00    +0.000 A 
ATOM      6  C   UNL     1      -4.654  20.868 -18.948  0.00  0.00    +0.000 A 
ATOM      7  C   UNL     1      -3.422  21.312 -18.464  0.00  0.00    +0.000 A 
ATOM      8  C   UNL     1      -2.343  21.519 -19.324  0.00  0.00    +0.000 A 
ATOM      9  C   UNL     1      -2.504  21.270 -20.688  0.00  0.00    +0.000 A 
ATOM     10  C   UNL     1      -3.745  20.861 -21.175  0.00  0.00    +0.000 A 
ATOM     11  F   UNL     1      -3.873  20.618 -22.476  0.00  0.00    +0.000 F 
ATOM     12  C   UNL     1      -1.339  21.393 -21.664  0.00  0.00    +0.000 C 
ATOM     13  C   UNL     1      -0.215  22.240 -21.041  0.00  0.00    +0.000 C 
ATOM     14  N   UNL     1       0.110  21.711 -19.704  0.00  0.00    +0.000 N 
ATOM     15  C   UNL     1      -0.993  21.967 -18.758  0.00  0.00    +0.000 C 
ATOM     16  H   UNL     1       0.950  22.157 -19.365  0.00  0.00    +0.000 HD
ATOM     17  H   UNL     1       0.291  20.720 -19.758  0.00  0.00    +0.000 HD
ENDBRANCH   3   5
BRANCH   1  21
ATOM     18  N   UNL     1      -8.889  21.900 -23.253  0.00  0.00    +0.000 NA
ATOM     19  C   UNL     1      -7.947  20.832 -23.640  0.00  0.00    +0.000 C 
ATOM     20  C   UNL     1      -8.119  19.571 -22.765  0.00  0.00    +0.000 C 
ATOM     21  C   UNL     1      -8.457  19.930 -21.301  0.00  0.00    +0.000 C 
ATOM     22  C   UNL     1      -9.771  20.751 -21.244  0.00  0.00    +0.000 C 
ATOM     23  C   UNL     1     -10.115  21.412 -22.602  0.00  0.00    +0.000 C 
BRANCH  18  24
ATOM     24  C   UNL     1      -9.072  22.926 -24.297  0.00  0.00    +0.000 C 
BRANCH  24  28
ATOM     25  C   UNL     1      -5.214  25.109 -26.542  0.00  0.00    +0.000 C 
ATOM     26  C   UNL     1      -6.312  24.795 -25.531  0.00  0.00    +0.000 A 
ATOM     27  N   UNL     1      -7.241  23.857 -25.775  0.00  0.00    +0.000 NA
ATOM     28  C   UNL     1      -7.700  23.539 -24.564  0.00  0.00    +0.000 A 
ATOM     29  C   UNL     1      -6.961  24.430 -23.788  0.00  0.00    +0.000 A 
ATOM     30  S   UNL     1      -6.224  24.999 -24.424  0.00  0.00    +0.000 S 
ENDBRANCH  24  28
ENDBRANCH  18  24
ENDBRANCH   1  21
TORSDOF 4
ENDMDL
