MODEL 1
REMARK VINA RESULT:    -8.248      0.000      0.000
REMARK INTER + INTRA:          -9.728
REMARK INTER:                  -9.694
REMARK INTRA:                  -0.034
REMARK UNBOUND:                -0.034
REMARK  Name = conformer_16_chiral0
REMARK  3 active torsions:
REMARK  status: ('A' for Active; 'I' for Inactive)
REMARK    1  A    between atoms: C_2  and  C_3
REMARK    2  A    between atoms: N_9  and  C_10
REMARK    3  A    between atoms: C_10  and  C_11
REMARK                            x       y       z     vdW  Elec       q    Type
REMARK                         _______ _______ _______ _____ _____    ______ ____
ROOT
ATOM      1  C   UNL     1      -3.641  28.657 -29.674  0.00  0.00    +0.000 A 
ATOM      2  C   UNL     1      -3.843  27.303 -29.401  0.00  0.00    +0.000 A 
ATOM      3  C   UNL     1      -3.659  26.836 -28.099  0.00  0.00    +0.000 A 
ATOM      4  N   UNL     1      -3.812  25.462 -27.807  0.00  0.00    +0.000 N 
ATOM      5  C   UNL     1      -3.222  24.944 -26.558  0.00  0.00    +0.000 C 
ATOM      6  C   UNL     1      -4.145  25.256 -25.358  0.00  0.00    +0.000 C 
ATOM      7  N   UNL     1      -5.493  24.690 -25.574  0.00  0.00    +0.000 N 
ATOM      8  C   UNL     1      -6.062  25.195 -26.841  0.00  0.00    +0.000 C 
ATOM      9  C   UNL     1      -5.133  24.846 -28.021  0.00  0.00    +0.000 C 
ATOM     10  N   UNL     1      -3.275  27.699 -27.139  0.00  0.00    +0.000 NA
ATOM     11  C   UNL     1      -3.091  29.003 -27.422  0.00  0.00    +0.000 A 
ATOM     12  N   UNL     1      -3.289  29.479 -28.667  0.00  0.00    +0.000 NA
ATOM     13  H   UNL     1      -5.409  23.688 -25.646  0.00  0.00    +0.000 HD
ENDROOT
BRANCH   1  15
ATOM     14  O   UNL     1      -3.215  29.782 -31.668  0.00  0.00    +0.000 OA
ATOM     15  C   UNL     1      -4.075  29.219 -31.009  0.00  0.00    +0.000 C 
ATOM     16  N   UNL     1      -5.338  29.067 -31.474  0.00  0.00    +0.000 N 
ATOM     17  C   UNL     1      -5.597  29.368 -32.875  0.00  0.00    +0.000 C 
ATOM     18  C   UNL     1      -7.046  29.858 -33.059  0.00  0.00    +0.000 C 
ATOM     19  O   UNL     1      -7.961  28.958 -32.421  0.00  0.00    +0.000 OA
ATOM     20  C   UNL     1      -7.744  28.933 -31.004  0.00  0.00    +0.000 C 
ATOM     21  C   UNL     1      -6.340  28.391 -30.662  0.00  0.00    +0.000 C 
ENDBRANCH   1  15
BRANCH   7  22
ATOM     22  C   UNL     1      -6.397  24.995 -24.445  0.00  0.00    +0.000 C 
BRANCH  22  23
ATOM     23  C   UNL     1      -6.856  23.709 -23.754  0.00  0.00    +0.000 A 
ATOM     24  C   UNL     1      -6.102  23.183 -22.702  0.00  0.00    +0.000 A 
ATOM     25  C   UNL     1      -6.498  22.000 -22.078  0.00  0.00    +0.000 A 
ATOM     26  C   UNL     1      -7.640  21.327 -22.515  0.00  0.00    +0.000 A 
ATOM     27  C   UNL     1      -8.381  21.838 -23.581  0.00  0.00    +0.000 A 
ATOM     28  C   UNL     1      -7.989  23.026 -24.201  0.00  0.00    +0.000 A 
ENDBRANCH  22  23
ENDBRANCH   7  22
TORSDOF 3
ENDMDL
