MODEL 1
REMARK VINA RESULT:    -5.871      0.000      0.000
REMARK INTER + INTRA:          -8.523
REMARK INTER:                  -7.244
REMARK INTRA:                  -1.279
REMARK UNBOUND:                -1.279
REMARK  Name = conformer_22_chiral0
REMARK  4 active torsions:
REMARK  status: ('A' for Active; 'I' for Inactive)
REMARK    1  A    between atoms: C_2  and  C_4
REMARK    2  A    between atoms: C_6  and  C_7
REMARK    3  A    between atoms: C_12  and  N_13
REMARK    4  A    between atoms: N_21  and  C_22
REMARK                            x       y       z     vdW  Elec       q    Type
REMARK                         _______ _______ _______ _____ _____    ______ ____
ROOT
ATOM      1  C   UNL     1      -1.221  24.311 -23.525  0.00  0.00    +0.000 A 
ATOM      2  C   UNL     1      -2.541  24.118 -23.922  0.00  0.00    +0.000 A 
ATOM      3  C   UNL     1      -2.695  24.871 -25.082  0.00  0.00    +0.000 A 
ATOM      4  N   UNL     1      -1.574  25.593 -25.272  0.00  0.00    +0.000 NA
ATOM      5  N   UNL     1      -0.675  25.225 -24.357  0.00  0.00    +0.000 N 
ENDROOT
BRANCH   3   6
ATOM      6  C   UNL     1      -4.008  25.220 -25.745  0.00  0.00    +0.000 C 
ATOM      7  O   UNL     1      -4.846  25.768 -25.049  0.00  0.00    +0.000 OA
ATOM      8  N   UNL     1      -4.174  25.057 -27.079  0.00  0.00    +0.000 N 
ATOM      9  C   UNL     1      -5.292  25.714 -27.730  0.00  0.00    +0.000 C 
ATOM     10  C   UNL     1      -4.807  26.172 -29.127  0.00  0.00    +0.000 C 
ATOM     11  C   UNL     1      -3.284  26.475 -29.126  0.00  0.00    +0.000 C 
ATOM     12  C   UNL     1      -2.522  25.144 -28.894  0.00  0.00    +0.000 C 
ATOM     13  C   UNL     1      -3.247  24.254 -27.860  0.00  0.00    +0.000 C 
BRANCH  11  14
ATOM     14  N   UNL     1      -2.868  27.498 -28.135  0.00  0.00    +0.000 N 
ATOM     15  C   UNL     1      -1.392  27.648 -28.030  0.00  0.00    +0.000 C 
ATOM     16  C   UNL     1      -1.082  29.150 -28.175  0.00  0.00    +0.000 C 
ATOM     17  C   UNL     1      -2.397  29.792 -27.724  0.00  0.00    +0.000 C 
ATOM     18  C   UNL     1      -3.416  28.850 -28.387  0.00  0.00    +0.000 C 
ATOM     19  H   UNL     1      -3.198  27.228 -27.222  0.00  0.00    +0.000 HD
ENDBRANCH  11  14
ENDBRANCH   3   6
BRANCH   5  20
ATOM     20  C   UNL     1       0.256  25.803 -24.156  0.00  0.00    +0.000 A 
ATOM     21  C   UNL     1       1.297  25.711 -25.085  0.00  0.00    +0.000 A 
ATOM     22  C   UNL     1       2.431  26.516 -24.967  0.00  0.00    +0.000 A 
ATOM     23  C   UNL     1       2.566  27.374 -23.876  0.00  0.00    +0.000 A 
ATOM     24  C   UNL     1       1.524  27.487 -22.956  0.00  0.00    +0.000 A 
ATOM     25  C   UNL     1       0.345  26.760 -23.139  0.00  0.00    +0.000 A 
ENDBRANCH   5  20
BRANCH   1  27
ATOM     26  N   UNL     1      -0.484  23.805 -21.213  0.00  0.00    +0.000 N 
ATOM     27  C   UNL     1      -0.454  23.480 -22.520  0.00  0.00    +0.000 C 
ATOM     28  O   UNL     1       0.181  22.515 -22.919  0.00  0.00    +0.000 OA
ATOM     29  H   UNL     1       0.024  23.248 -20.556  0.00  0.00    +0.000 HD
ATOM     30  H   UNL     1      -0.986  24.609 -20.897  0.00  0.00    +0.000 HD
ENDBRANCH   1  27
TORSDOF 4
ENDMDL
