MODEL 1
REMARK VINA RESULT:    -8.354      0.000      0.000
REMARK INTER + INTRA:         -10.881
REMARK INTER:                 -10.308
REMARK INTRA:                  -0.573
REMARK UNBOUND:                -0.573
REMARK  Name = conformer_1_chiral0
REMARK  5 active torsions:
REMARK  status: ('A' for Active; 'I' for Inactive)
REMARK    1  A    between atoms: C_1  and  N_2
REMARK    2  A    between atoms: N_10  and  C_11
REMARK    3  A    between atoms: C_11  and  C_12
REMARK    4  A    between atoms: N_14  and  C_15
REMARK    5  A    between atoms: C_20  and  N_21
REMARK                            x       y       z     vdW  Elec       q    Type
REMARK                         _______ _______ _______ _____ _____    ______ ____
ROOT
ATOM      1  C   UNL     1      -7.459  23.040 -23.678  0.00  0.00    +0.000 C 
ATOM      2  O   UNL     1      -7.751  22.400 -24.675  0.00  0.00    +0.000 OA
ATOM      3  N   UNL     1      -7.541  22.529 -22.426  0.00  0.00    +0.000 N 
ATOM      4  H   UNL     1      -7.325  23.123 -21.651  0.00  0.00    +0.000 HD
ENDROOT
BRANCH   3   5
ATOM      5  C   UNL     1      -7.962  21.189 -22.203  0.00  0.00    +0.000 A 
ATOM      6  C   UNL     1      -9.182  20.749 -22.730  0.00  0.00    +0.000 A 
ATOM      7  C   UNL     1      -9.629  19.446 -22.522  0.00  0.00    +0.000 A 
ATOM      8  C   UNL     1      -8.814  18.537 -21.852  0.00  0.00    +0.000 A 
ATOM      9  C   UNL     1      -7.553  18.939 -21.415  0.00  0.00    +0.000 A 
ATOM     10  C   UNL     1      -7.128  20.263 -21.554  0.00  0.00    +0.000 A 
BRANCH  10  11
ATOM     11  N   UNL     1      -5.841  20.633 -21.072  0.00  0.00    +0.000 N 
ATOM     12  C   UNL     1      -4.653  20.462 -21.886  0.00  0.00    +0.000 C 
ATOM     13  C   UNL     1      -3.638  21.292 -21.073  0.00  0.00    +0.000 C 
ATOM     14  C   UNL     1      -4.100  21.130 -19.607  0.00  0.00    +0.000 C 
ATOM     15  C   UNL     1      -5.573  20.894 -19.782  0.00  0.00    +0.000 C 
ATOM     16  O   UNL     1      -6.343  20.777 -18.845  0.00  0.00    +0.000 OA
ENDBRANCH  10  11
ENDBRANCH   3   5
BRANCH   1  17
ATOM     17  C   UNL     1      -7.142  24.506 -23.848  0.00  0.00    +0.000 C 
BRANCH  17  27
ATOM     18  C   UNL     1      -2.204  24.320 -28.251  0.00  0.00    +0.000 C 
ATOM     19  N   UNL     1      -3.263  24.498 -27.956  0.00  0.00    +0.000 N 
ATOM     20  N   UNL     1      -4.276  24.522 -28.826  0.00  0.00    +0.000 NA
ATOM     21  C   UNL     1      -5.373  24.973 -28.188  0.00  0.00    +0.000 A 
ATOM     22  C   UNL     1      -5.046  25.241 -26.862  0.00  0.00    +0.000 A 
ATOM     23  C   UNL     1      -3.706  24.886 -26.740  0.00  0.00    +0.000 A 
ATOM     24  C   UNL     1      -2.829  25.059 -25.497  0.00  0.00    +0.000 C 
ATOM     25  C   UNL     1      -3.413  24.324 -24.272  0.00  0.00    +0.000 C 
ATOM     26  C   UNL     1      -4.726  24.965 -23.764  0.00  0.00    +0.000 C 
ATOM     27  N   UNL     1      -5.894  24.674 -24.630  0.00  0.00    +0.000 N 
ATOM     28  C   UNL     1      -6.015  25.635 -25.749  0.00  0.00    +0.000 C 
ATOM     29  H   UNL     1      -5.755  23.787 -25.076  0.00  0.00    +0.000 HD
ENDBRANCH  17  27
ENDBRANCH   1  17
TORSDOF 4
ENDMDL
