MODEL 1
REMARK VINA RESULT:    -7.018      0.000      0.000
REMARK INTER + INTRA:          -9.698
REMARK INTER:                  -8.660
REMARK INTRA:                  -1.038
REMARK UNBOUND:                -1.038
REMARK  Name = conformer_20_chiral0
REMARK  5 active torsions:
REMARK  status: ('A' for Active; 'I' for Inactive)
REMARK    1  A    between atoms: C_1  and  N_2
REMARK    2  A    between atoms: C_3  and  C_5
REMARK    3  A    between atoms: C_5  and  N_6
REMARK    4  A    between atoms: C_10  and  C_12
REMARK    5  A    between atoms: N_14  and  C_15
REMARK                            x       y       z     vdW  Elec       q    Type
REMARK                         _______ _______ _______ _____ _____    ______ ____
ROOT
ATOM      1  N   UNL     1      -5.053  21.280 -20.843  0.00  0.00    +0.000 N 
ATOM      2  C   UNL     1      -3.705  21.445 -21.438  0.00  0.00    +0.000 C 
ATOM      3  C   UNL     1      -2.682  20.570 -20.683  0.00  0.00    +0.000 C 
ATOM      4  N   UNL     1      -2.780  21.006 -19.302  0.00  0.00    +0.000 N 
ATOM      5  C   UNL     1      -1.923  21.915 -18.768  0.00  0.00    +0.000 C 
ATOM      6  O   UNL     1      -2.099  22.351 -17.641  0.00  0.00    +0.000 OA
ATOM      7  C   UNL     1      -4.037  20.762 -18.616  0.00  0.00    +0.000 C 
ATOM      8  C   UNL     1      -5.071  21.604 -19.396  0.00  0.00    +0.000 C 
ATOM      9  H   UNL     1      -5.295  20.306 -20.950  0.00  0.00    +0.000 HD
ENDROOT
BRANCH   5  10
ATOM     10  C   UNL     1      -0.733  22.509 -19.494  0.00  0.00    +0.000 A 
ATOM     11  N   UNL     1      -0.776  23.379 -20.518  0.00  0.00    +0.000 NA
ATOM     12  N   UNL     1       0.447  23.851 -20.776  0.00  0.00    +0.000 N 
ATOM     13  C   UNL     1       1.281  23.369 -19.825  0.00  0.00    +0.000 A 
ATOM     14  C   UNL     1       0.559  22.533 -18.982  0.00  0.00    +0.000 A 
ATOM     15  C   UNL     1       1.334  21.294 -18.560  0.00  0.00    +0.000 C 
ATOM     16  C   UNL     1       2.549  21.305 -19.518  0.00  0.00    +0.000 C 
ATOM     17  C   UNL     1       2.641  22.732 -20.116  0.00  0.00    +0.000 C 
BRANCH  12  18
ATOM     18  C   UNL     1       0.592  24.842 -21.303  0.00  0.00    +0.000 A 
ATOM     19  C   UNL     1       0.336  25.024 -22.669  0.00  0.00    +0.000 A 
ATOM     20  C   UNL     1       0.363  26.293 -23.250  0.00  0.00    +0.000 A 
ATOM     21  C   UNL     1       0.695  27.410 -22.488  0.00  0.00    +0.000 A 
ATOM     22  C   UNL     1       1.022  27.239 -21.145  0.00  0.00    +0.000 A 
ATOM     23  C   UNL     1       0.965  25.973 -20.562  0.00  0.00    +0.000 A 
ENDBRANCH  12  18
ENDBRANCH   5  10
BRANCH   1  24
ATOM     24  C   UNL     1      -6.054  22.092 -21.572  0.00  0.00    +0.000 C 
BRANCH  24  27
ATOM     25  C   UNL     1      -8.685  19.422 -22.136  0.00  0.00    +0.000 C 
ATOM     26  N   UNL     1      -7.583  20.191 -21.579  0.00  0.00    +0.000 N 
ATOM     27  C   UNL     1      -7.095  21.246 -22.263  0.00  0.00    +0.000 C 
ATOM     28  O   UNL     1      -7.530  21.576 -23.355  0.00  0.00    +0.000 OA
ATOM     29  H   UNL     1      -7.270  19.977 -20.653  0.00  0.00    +0.000 HD
ENDBRANCH  24  27
ENDBRANCH   1  24
TORSDOF 4
ENDMDL
